** Generated for: hspiceD
** Generated on: Nov 12 20:24:11 2019
** Design library name: CTDSM_TOP
** Design cell name: CTDSM_TOP
** Design view name: schematic

.subckt INPUT_RES VINP VINN OTA1_INP OTA1_INN GND
xr13 OTA1_INP VINP GND  rppolywo_m lr=10e-6 wr=600e-9 multi=1 m=1 series=5 segspace=250e-9
xr14 VINN OTA1_INN GND  rppolywo_m lr=10e-6 wr=600e-9 multi=1 m=1 series=5 segspace=250e-9
.ends INPUT_RES


** .TEMP 25.0
** .OPTION
** +    ARTIST=2
** +    INGOLD=2
** +    PARHIER=LOCAL
** +    PSF=2
** .LIB "/usr/local/packages/tsmc_40/pdk/models/hspice/toplevel.l" top_tt

** Library name: STDLIB
** Cell name: INVD4BWP_LVT
** View name: schematic
** terminal mapping: I	= i
**                   ZN	= zn
**                   VDD	= vdd
**                   VSS	= vss
.subckt INVD4BWP_LVT i zn vdd vss

** nch_lvt_mac Instance MU1_0-M_u2 = hspiceD device x0
x0 zn i vss vss nch_lvt_mac l=80e-9 w=620e-9 multi=1 nf=1 sd=140e-9 ad=34.1e-15 as=34.1e-15 pd=840e-9 ps=840e-9 nrd=225.806e-3 nrs=225.806e-3 sa=110e-9 sb=110e-9 sa1=110e-9 sa2=110e-9 sa3=110e-9 sa4=110e-9 sb1=110e-9 sb2=110e-9 sb3=110e-9 spa=140e-9 spa1=140e-9 spa2=140e-9 spa3=140e-9 sap=130.305e-9 spba=745.547e-9 sapb=1.59028e-6 spba1=745.933e-9

** nch_lvt_mac Instance MU1_3-M_u2 = hspiceD device x1
x1 zn i vss vss nch_lvt_mac l=80e-9 w=620e-9 multi=1 nf=1 sd=140e-9 ad=34.1e-15 as=34.1e-15 pd=840e-9 ps=840e-9 nrd=225.806e-3 nrs=225.806e-3 sa=110e-9 sb=110e-9 sa1=110e-9 sa2=110e-9 sa3=110e-9 sa4=110e-9 sb1=110e-9 sb2=110e-9 sb3=110e-9 spa=140e-9 spa1=140e-9 spa2=140e-9 spa3=140e-9 sap=130.305e-9 spba=745.547e-9 sapb=1.59028e-6 spba1=745.933e-9

** nch_lvt_mac Instance MU1_1-M_u2 = hspiceD device x2
x2 zn i vss vss nch_lvt_mac l=80e-9 w=620e-9 multi=1 nf=1 sd=140e-9 ad=34.1e-15 as=34.1e-15 pd=840e-9 ps=840e-9 nrd=225.806e-3 nrs=225.806e-3 sa=110e-9 sb=110e-9 sa1=110e-9 sa2=110e-9 sa3=110e-9 sa4=110e-9 sb1=110e-9 sb2=110e-9 sb3=110e-9 spa=140e-9 spa1=140e-9 spa2=140e-9 spa3=140e-9 sap=130.305e-9 spba=745.547e-9 sapb=1.59028e-6 spba1=745.933e-9

** nch_lvt_mac Instance MU1_2-M_u2 = hspiceD device x3
x3 zn i vss vss nch_lvt_mac l=80e-9 w=620e-9 multi=1 nf=1 sd=140e-9 ad=34.1e-15 as=34.1e-15 pd=840e-9 ps=840e-9 nrd=225.806e-3 nrs=225.806e-3 sa=110e-9 sb=110e-9 sa1=110e-9 sa2=110e-9 sa3=110e-9 sa4=110e-9 sb1=110e-9 sb2=110e-9 sb3=110e-9 spa=140e-9 spa1=140e-9 spa2=140e-9 spa3=140e-9 sap=130.305e-9 spba=745.547e-9 sapb=1.59028e-6 spba1=745.933e-9

** pch_lvt_mac Instance MU1_0-M_u3 = hspiceD device x4
x4 zn i vdd vdd pch_lvt_mac l=80e-9 w=820e-9 multi=1 nf=1 sd=140e-9 ad=45.1e-15 as=45.1e-15 pd=1.04e-6 ps=1.04e-6 nrd=170.732e-3 nrs=170.732e-3 sa=110e-9 sb=110e-9 sa1=110e-9 sa2=110e-9 sa3=110e-9 sa4=110e-9 sb1=110e-9 sb2=110e-9 sb3=110e-9 spa=140e-9 spa1=140e-9 spa2=140e-9 spa3=140e-9 sap=130.305e-9 spba=745.547e-9 sapb=1.59028e-6 spba1=745.933e-9

** pch_lvt_mac Instance MU1_1-M_u3 = hspiceD device x5
x5 zn i vdd vdd pch_lvt_mac l=80e-9 w=820e-9 multi=1 nf=1 sd=140e-9 ad=45.1e-15 as=45.1e-15 pd=1.04e-6 ps=1.04e-6 nrd=170.732e-3 nrs=170.732e-3 sa=110e-9 sb=110e-9 sa1=110e-9 sa2=110e-9 sa3=110e-9 sa4=110e-9 sb1=110e-9 sb2=110e-9 sb3=110e-9 spa=140e-9 spa1=140e-9 spa2=140e-9 spa3=140e-9 sap=130.305e-9 spba=745.547e-9 sapb=1.59028e-6 spba1=745.933e-9

** pch_lvt_mac Instance MU1_3-M_u3 = hspiceD device x6
x6 zn i vdd vdd pch_lvt_mac l=80e-9 w=820e-9 multi=1 nf=1 sd=140e-9 ad=45.1e-15 as=45.1e-15 pd=1.04e-6 ps=1.04e-6 nrd=170.732e-3 nrs=170.732e-3 sa=110e-9 sb=110e-9 sa1=110e-9 sa2=110e-9 sa3=110e-9 sa4=110e-9 sb1=110e-9 sb2=110e-9 sb3=110e-9 spa=140e-9 spa1=140e-9 spa2=140e-9 spa3=140e-9 sap=130.305e-9 spba=745.547e-9 sapb=1.59028e-6 spba1=745.933e-9

** pch_lvt_mac Instance MU1_2-M_u3 = hspiceD device x7
x7 zn i vdd vdd pch_lvt_mac l=80e-9 w=820e-9 multi=1 nf=1 sd=140e-9 ad=45.1e-15 as=45.1e-15 pd=1.04e-6 ps=1.04e-6 nrd=170.732e-3 nrs=170.732e-3 sa=110e-9 sb=110e-9 sa1=110e-9 sa2=110e-9 sa3=110e-9 sa4=110e-9 sb1=110e-9 sb2=110e-9 sb3=110e-9 spa=140e-9 spa1=140e-9 spa2=140e-9 spa3=140e-9 sap=130.305e-9 spba=745.547e-9 sapb=1.59028e-6 spba1=745.933e-9
.ends INVD4BWP_LVT
** End of subcircuit definition.

** Library name: STDLIB
** Cell name: DFCND4BWP_LVT
** View name: schematic
** terminal mapping: D	= d
**                   CP	= cp
**                   CDN	= cdn
**                   Q	= q
**                   QN	= qn
**                   VDD	= vdd
**                   VSS	= vss
.subckt DFCND4BWP_LVT_stupid d cp q qn vdd vss

** pch_lvt_mac Instance MI14-M_u3 = hspiceD device x0
x0 net175 net149 vdd vdd pch_lvt_mac l=80e-9 w=820e-9 multi=1 nf=1 sd=140e-9 ad=45.1e-15 as=45.1e-15 pd=1.04e-6 ps=1.04e-6 nrd=170.732e-3 nrs=170.732e-3 sa=110e-9 sb=110e-9 sa1=110e-9 sa2=110e-9 sa3=110e-9 sa4=110e-9 sb1=110e-9 sb2=110e-9 sb3=110e-9 spa=140e-9 spa1=140e-9 spa2=140e-9 spa3=140e-9 sap=130.305e-9 spba=745.547e-9 sapb=1.59028e-6 spba1=745.933e-9

** pch_lvt_mac Instance MI22-M_u3 = hspiceD device x1
x1 q net149 vdd vdd pch_lvt_mac l=80e-9 w=820e-9 multi=1 nf=1 sd=140e-9 ad=45.1e-15 as=45.1e-15 pd=1.04e-6 ps=1.04e-6 nrd=170.732e-3 nrs=170.732e-3 sa=110e-9 sb=110e-9 sa1=110e-9 sa2=110e-9 sa3=110e-9 sa4=110e-9 sb1=110e-9 sb2=110e-9 sb3=110e-9 spa=140e-9 spa1=140e-9 spa2=140e-9 spa3=140e-9 sap=130.305e-9 spba=745.547e-9 sapb=1.59028e-6 spba1=745.933e-9

** pch_lvt_mac Instance MI28-M_u3 = hspiceD device x2
x2 qn net175 vdd vdd pch_lvt_mac l=80e-9 w=820e-9 multi=1 nf=1 sd=140e-9 ad=45.1e-15 as=45.1e-15 pd=1.04e-6 ps=1.04e-6 nrd=170.732e-3 nrs=170.732e-3 sa=110e-9 sb=110e-9 sa1=110e-9 sa2=110e-9 sa3=110e-9 sa4=110e-9 sb1=110e-9 sb2=110e-9 sb3=110e-9 spa=140e-9 spa1=140e-9 spa2=140e-9 spa3=140e-9 sap=130.305e-9 spba=745.547e-9 sapb=1.59028e-6 spba1=745.933e-9

** pch_lvt_mac Instance MI23-M_u3 = hspiceD device x3
x3 qn net175 vdd vdd pch_lvt_mac l=80e-9 w=820e-9 multi=1 nf=1 sd=140e-9 ad=45.1e-15 as=45.1e-15 pd=1.04e-6 ps=1.04e-6 nrd=170.732e-3 nrs=170.732e-3 sa=110e-9 sb=110e-9 sa1=110e-9 sa2=110e-9 sa3=110e-9 sa4=110e-9 sb1=110e-9 sb2=110e-9 sb3=110e-9 spa=140e-9 spa1=140e-9 spa2=140e-9 spa3=140e-9 sap=130.305e-9 spba=745.547e-9 sapb=1.59028e-6 spba1=745.933e-9

** pch_lvt_mac Instance MI43 = hspiceD device xmi43
xmi43 net12 net145 vdd vdd pch_lvt_mac l=80e-9 w=240e-9 multi=1 nf=1 sd=140e-9 ad=13.2e-15 as=13.2e-15 pd=460e-9 ps=460e-9 nrd=583.333e-3 nrs=583.333e-3 sa=110e-9 sb=110e-9 sa1=110e-9 sa2=110e-9 sa3=110e-9 sa4=110e-9 sb1=110e-9 sb2=110e-9 sb3=110e-9 spa=140e-9 spa1=140e-9 spa2=140e-9 spa3=140e-9 sap=130.305e-9 spba=745.547e-9 sapb=1.59028e-6 spba1=745.933e-9

** pch_lvt_mac Instance MI39-M_u3 = hspiceD device x4
x4 net95 net11 vdd vdd pch_lvt_mac l=80e-9 w=820e-9 multi=1 nf=1 sd=140e-9 ad=45.1e-15 as=45.1e-15 pd=1.04e-6 ps=1.04e-6 nrd=170.732e-3 nrs=170.732e-3 sa=110e-9 sb=110e-9 sa1=110e-9 sa2=110e-9 sa3=110e-9 sa4=110e-9 sb1=110e-9 sb2=110e-9 sb3=110e-9 spa=140e-9 spa1=140e-9 spa2=140e-9 spa3=140e-9 sap=130.305e-9 spba=745.547e-9 sapb=1.59028e-6 spba1=745.933e-9

** pch_lvt_mac Instance MI6 = hspiceD device xmi6
xmi6 net9 d net1 vdd pch_lvt_mac l=80e-9 w=680e-9 multi=1 nf=1 sd=140e-9 ad=37.4e-15 as=37.4e-15 pd=900e-9 ps=900e-9 nrd=205.882e-3 nrs=205.882e-3 sa=110e-9 sb=110e-9 sa1=110e-9 sa2=110e-9 sa3=110e-9 sa4=110e-9 sb1=110e-9 sb2=110e-9 sb3=110e-9 spa=140e-9 spa1=140e-9 spa2=140e-9 spa3=140e-9 sap=130.305e-9 spba=745.547e-9 sapb=1.59028e-6 spba1=745.933e-9

** pch_lvt_mac Instance MI26-M_u3 = hspiceD device x5
x5 qn net175 vdd vdd pch_lvt_mac l=80e-9 w=820e-9 multi=1 nf=1 sd=140e-9 ad=45.1e-15 as=45.1e-15 pd=1.04e-6 ps=1.04e-6 nrd=170.732e-3 nrs=170.732e-3 sa=110e-9 sb=110e-9 sa1=110e-9 sa2=110e-9 sa3=110e-9 sa4=110e-9 sb1=110e-9 sb2=110e-9 sb3=110e-9 spa=140e-9 spa1=140e-9 spa2=140e-9 spa3=140e-9 sap=130.305e-9 spba=745.547e-9 sapb=1.59028e-6 spba1=745.933e-9

** pch_lvt_mac Instance MI29-M_u3 = hspiceD device x6
x6 qn net175 vdd vdd pch_lvt_mac l=80e-9 w=820e-9 multi=1 nf=1 sd=140e-9 ad=45.1e-15 as=45.1e-15 pd=1.04e-6 ps=1.04e-6 nrd=170.732e-3 nrs=170.732e-3 sa=110e-9 sb=110e-9 sa1=110e-9 sa2=110e-9 sa3=110e-9 sa4=110e-9 sb1=110e-9 sb2=110e-9 sb3=110e-9 spa=140e-9 spa1=140e-9 spa2=140e-9 spa3=140e-9 sap=130.305e-9 spba=745.547e-9 sapb=1.59028e-6 spba1=745.933e-9

** pch_lvt_mac Instance MI31-M_u3 = hspiceD device x7
x7 net11 cp vdd vdd pch_lvt_mac l=80e-9 w=820e-9 multi=1 nf=1 sd=140e-9 ad=45.1e-15 as=45.1e-15 pd=1.04e-6 ps=1.04e-6 nrd=170.732e-3 nrs=170.732e-3 sa=110e-9 sb=110e-9 sa1=110e-9 sa2=110e-9 sa3=110e-9 sa4=110e-9 sb1=110e-9 sb2=110e-9 sb3=110e-9 spa=140e-9 spa1=140e-9 spa2=140e-9 spa3=140e-9 sap=130.305e-9 spba=745.547e-9 sapb=1.59028e-6 spba1=745.933e-9

** pch_lvt_mac Instance MI27-M_u3 = hspiceD device x8
x8 q net149 vdd vdd pch_lvt_mac l=80e-9 w=820e-9 multi=1 nf=1 sd=140e-9 ad=45.1e-15 as=45.1e-15 pd=1.04e-6 ps=1.04e-6 nrd=170.732e-3 nrs=170.732e-3 sa=110e-9 sb=110e-9 sa1=110e-9 sa2=110e-9 sa3=110e-9 sa4=110e-9 sb1=110e-9 sb2=110e-9 sb3=110e-9 spa=140e-9 spa1=140e-9 spa2=140e-9 spa3=140e-9 sap=130.305e-9 spba=745.547e-9 sapb=1.59028e-6 spba1=745.933e-9

** pch_lvt_mac Instance MI36-M_u2 = hspiceD device x9
x9 net149 cdn vdd vdd pch_lvt_mac l=80e-9 w=820e-9 multi=1 nf=1 sd=140e-9 ad=45.1e-15 as=45.1e-15 pd=1.04e-6 ps=1.04e-6 nrd=170.732e-3 nrs=170.732e-3 sa=110e-9 sb=110e-9 sa1=110e-9 sa2=110e-9 sa3=110e-9 sa4=110e-9 sb1=110e-9 sb2=110e-9 sb3=110e-9 spa=140e-9 spa1=140e-9 spa2=140e-9 spa3=140e-9 sap=130.305e-9 spba=745.547e-9 sapb=1.59028e-6 spba1=745.933e-9

** pch_lvt_mac Instance MI44 = hspiceD device xmi44
xmi44 net12 cdn vdd vdd pch_lvt_mac l=80e-9 w=240e-9 multi=1 nf=1 sd=140e-9 ad=13.2e-15 as=13.2e-15 pd=460e-9 ps=460e-9 nrd=583.333e-3 nrs=583.333e-3 sa=110e-9 sb=110e-9 sa1=110e-9 sa2=110e-9 sa3=110e-9 sa4=110e-9 sb1=110e-9 sb2=110e-9 sb3=110e-9 spa=140e-9 spa1=140e-9 spa2=140e-9 spa3=140e-9 sap=130.305e-9 spba=745.547e-9 sapb=1.59028e-6 spba1=745.933e-9

** pch_lvt_mac Instance MI17 = hspiceD device xmi17
xmi17 net175 net95 net24 vdd pch_lvt_mac l=80e-9 w=240e-9 multi=1 nf=1 sd=140e-9 ad=13.2e-15 as=13.2e-15 pd=460e-9 ps=460e-9 nrd=583.333e-3 nrs=583.333e-3 sa=110e-9 sb=110e-9 sa1=110e-9 sa2=110e-9 sa3=110e-9 sa4=110e-9 sb1=110e-9 sb2=110e-9 sb3=110e-9 spa=140e-9 spa1=140e-9 spa2=140e-9 spa3=140e-9 sap=130.305e-9 spba=745.547e-9 sapb=1.59028e-6 spba1=745.933e-9

** pch_lvt_mac Instance MI36-M_u1 = hspiceD device x10
x10 net149 net24 vdd vdd pch_lvt_mac l=80e-9 w=820e-9 multi=1 nf=1 sd=140e-9 ad=45.1e-15 as=45.1e-15 pd=1.04e-6 ps=1.04e-6 nrd=170.732e-3 nrs=170.732e-3 sa=110e-9 sb=110e-9 sa1=110e-9 sa2=110e-9 sa3=110e-9 sa4=110e-9 sb1=110e-9 sb2=110e-9 sb3=110e-9 spa=140e-9 spa1=140e-9 spa2=140e-9 spa3=140e-9 sap=130.305e-9 spba=745.547e-9 sapb=1.59028e-6 spba1=745.933e-9

** pch_lvt_mac Instance MI13-M_u3 = hspiceD device x11
x11 net145 net9 vdd vdd pch_lvt_mac l=80e-9 w=360e-9 multi=1 nf=1 sd=140e-9 ad=19.8e-15 as=19.8e-15 pd=580e-9 ps=580e-9 nrd=388.889e-3 nrs=388.889e-3 sa=110e-9 sb=110e-9 sa1=110e-9 sa2=110e-9 sa3=110e-9 sa4=110e-9 sb1=110e-9 sb2=110e-9 sb3=110e-9 spa=140e-9 spa1=140e-9 spa2=140e-9 spa3=140e-9 sap=130.305e-9 spba=745.547e-9 sapb=1.59028e-6 spba1=745.933e-9

** pch_lvt_mac Instance MI24-M_u3 = hspiceD device x12
x12 q net149 vdd vdd pch_lvt_mac l=80e-9 w=820e-9 multi=1 nf=1 sd=140e-9 ad=45.1e-15 as=45.1e-15 pd=1.04e-6 ps=1.04e-6 nrd=170.732e-3 nrs=170.732e-3 sa=110e-9 sb=110e-9 sa1=110e-9 sa2=110e-9 sa3=110e-9 sa4=110e-9 sb1=110e-9 sb2=110e-9 sb3=110e-9 spa=140e-9 spa1=140e-9 spa2=140e-9 spa3=140e-9 sap=130.305e-9 spba=745.547e-9 sapb=1.59028e-6 spba1=745.933e-9

** pch_lvt_mac Instance MI16 = hspiceD device xmi16
xmi16 net145 net11 net24 vdd pch_lvt_mac l=80e-9 w=360e-9 multi=1 nf=1 sd=140e-9 ad=19.8e-15 as=19.8e-15 pd=580e-9 ps=580e-9 nrd=388.889e-3 nrs=388.889e-3 sa=110e-9 sb=110e-9 sa1=110e-9 sa2=110e-9 sa3=110e-9 sa4=110e-9 sb1=110e-9 sb2=110e-9 sb3=110e-9 spa=140e-9 spa1=140e-9 spa2=140e-9 spa3=140e-9 sap=130.305e-9 spba=745.547e-9 sapb=1.59028e-6 spba1=745.933e-9

** pch_lvt_mac Instance MI30-M_u1 = hspiceD device x13
x13 net149 net24 vdd vdd pch_lvt_mac l=80e-9 w=560e-9 multi=1 nf=1 sd=140e-9 ad=30.8e-15 as=30.8e-15 pd=780e-9 ps=780e-9 nrd=250e-3 nrs=250e-3 sa=110e-9 sb=110e-9 sa1=110e-9 sa2=110e-9 sa3=110e-9 sa4=110e-9 sb1=110e-9 sb2=110e-9 sb3=110e-9 spa=140e-9 spa1=140e-9 spa2=140e-9 spa3=140e-9 sap=130.305e-9 spba=745.547e-9 sapb=1.59028e-6 spba1=745.933e-9

** pch_lvt_mac Instance MI30-M_u2 = hspiceD device x14
x14 net149 cdn vdd vdd pch_lvt_mac l=80e-9 w=560e-9 multi=1 nf=1 sd=140e-9 ad=30.8e-15 as=30.8e-15 pd=780e-9 ps=780e-9 nrd=250e-3 nrs=250e-3 sa=110e-9 sb=110e-9 sa1=110e-9 sa2=110e-9 sa3=110e-9 sa4=110e-9 sb1=110e-9 sb2=110e-9 sb3=110e-9 spa=140e-9 spa1=140e-9 spa2=140e-9 spa3=140e-9 sap=130.305e-9 spba=745.547e-9 sapb=1.59028e-6 spba1=745.933e-9

** pch_lvt_mac Instance MI45 = hspiceD device xmi45
xmi45 net9 net11 net12 vdd pch_lvt_mac l=80e-9 w=240e-9 multi=1 nf=1 sd=140e-9 ad=13.2e-15 as=13.2e-15 pd=460e-9 ps=460e-9 nrd=583.333e-3 nrs=583.333e-3 sa=110e-9 sb=110e-9 sa1=110e-9 sa2=110e-9 sa3=110e-9 sa4=110e-9 sb1=110e-9 sb2=110e-9 sb3=110e-9 spa=140e-9 spa1=140e-9 spa2=140e-9 spa3=140e-9 sap=130.305e-9 spba=745.547e-9 sapb=1.59028e-6 spba1=745.933e-9

** pch_lvt_mac Instance MI25-M_u3 = hspiceD device x15
x15 q net149 vdd vdd pch_lvt_mac l=80e-9 w=820e-9 multi=1 nf=1 sd=140e-9 ad=45.1e-15 as=45.1e-15 pd=1.04e-6 ps=1.04e-6 nrd=170.732e-3 nrs=170.732e-3 sa=110e-9 sb=110e-9 sa1=110e-9 sa2=110e-9 sa3=110e-9 sa4=110e-9 sb1=110e-9 sb2=110e-9 sb3=110e-9 spa=140e-9 spa1=140e-9 spa2=140e-9 spa3=140e-9 sap=130.305e-9 spba=745.547e-9 sapb=1.59028e-6 spba1=745.933e-9

** pch_lvt_mac Instance MI7 = hspiceD device xmi7
xmi7 net1 net95 vdd vdd pch_lvt_mac l=80e-9 w=680e-9 multi=1 nf=1 sd=140e-9 ad=37.4e-15 as=37.4e-15 pd=900e-9 ps=900e-9 nrd=205.882e-3 nrs=205.882e-3 sa=110e-9 sb=110e-9 sa1=110e-9 sa2=110e-9 sa3=110e-9 sa4=110e-9 sb1=110e-9 sb2=110e-9 sb3=110e-9 spa=140e-9 spa1=140e-9 spa2=140e-9 spa3=140e-9 sap=130.305e-9 spba=745.547e-9 sapb=1.59028e-6 spba1=745.933e-9

** nch_lvt_mac Instance MI26-M_u2 = hspiceD device x16
x16 qn net175 vss vss nch_lvt_mac l=80e-9 w=620e-9 multi=1 nf=1 sd=140e-9 ad=34.1e-15 as=34.1e-15 pd=840e-9 ps=840e-9 nrd=225.806e-3 nrs=225.806e-3 sa=110e-9 sb=110e-9 sa1=110e-9 sa2=110e-9 sa3=110e-9 sa4=110e-9 sb1=110e-9 sb2=110e-9 sb3=110e-9 spa=140e-9 spa1=140e-9 spa2=140e-9 spa3=140e-9 sap=130.305e-9 spba=745.547e-9 sapb=1.59028e-6 spba1=745.933e-9

** nch_lvt_mac Instance MI24-M_u2 = hspiceD device x17
x17 q net149 vss vss nch_lvt_mac l=80e-9 w=620e-9 multi=1 nf=1 sd=140e-9 ad=34.1e-15 as=34.1e-15 pd=840e-9 ps=840e-9 nrd=225.806e-3 nrs=225.806e-3 sa=110e-9 sb=110e-9 sa1=110e-9 sa2=110e-9 sa3=110e-9 sa4=110e-9 sb1=110e-9 sb2=110e-9 sb3=110e-9 spa=140e-9 spa1=140e-9 spa2=140e-9 spa3=140e-9 sap=130.305e-9 spba=745.547e-9 sapb=1.59028e-6 spba1=745.933e-9

** nch_lvt_mac Instance MI29-M_u2 = hspiceD device x18
x18 qn net175 vss vss nch_lvt_mac l=80e-9 w=620e-9 multi=1 nf=1 sd=140e-9 ad=34.1e-15 as=34.1e-15 pd=840e-9 ps=840e-9 nrd=225.806e-3 nrs=225.806e-3 sa=110e-9 sb=110e-9 sa1=110e-9 sa2=110e-9 sa3=110e-9 sa4=110e-9 sb1=110e-9 sb2=110e-9 sb3=110e-9 spa=140e-9 spa1=140e-9 spa2=140e-9 spa3=140e-9 sap=130.305e-9 spba=745.547e-9 sapb=1.59028e-6 spba1=745.933e-9

** nch_lvt_mac Instance MI30-M_u4 = hspiceD device x19
x19 net169 cdn vss vss nch_lvt_mac l=80e-9 w=400e-9 multi=1 nf=1 sd=140e-9 ad=22e-15 as=22e-15 pd=620e-9 ps=620e-9 nrd=350e-3 nrs=350e-3 sa=110e-9 sb=110e-9 sa1=110e-9 sa2=110e-9 sa3=110e-9 sa4=110e-9 sb1=110e-9 sb2=110e-9 sb3=110e-9 spa=140e-9 spa1=140e-9 spa2=140e-9 spa3=140e-9 sap=130.305e-9 spba=745.547e-9 sapb=1.59028e-6 spba1=745.933e-9

** nch_lvt_mac Instance MI4 = hspiceD device xmi4
xmi4 net128 net11 vss vss nch_lvt_mac l=80e-9 w=620e-9 multi=1 nf=1 sd=140e-9 ad=34.1e-15 as=34.1e-15 pd=840e-9 ps=840e-9 nrd=225.806e-3 nrs=225.806e-3 sa=110e-9 sb=110e-9 sa1=110e-9 sa2=110e-9 sa3=110e-9 sa4=110e-9 sb1=110e-9 sb2=110e-9 sb3=110e-9 spa=140e-9 spa1=140e-9 spa2=140e-9 spa3=140e-9 sap=130.305e-9 spba=745.547e-9 sapb=1.59028e-6 spba1=745.933e-9

** nch_lvt_mac Instance MI23-M_u2 = hspiceD device x20
x20 qn net175 vss vss nch_lvt_mac l=80e-9 w=620e-9 multi=1 nf=1 sd=140e-9 ad=34.1e-15 as=34.1e-15 pd=840e-9 ps=840e-9 nrd=225.806e-3 nrs=225.806e-3 sa=110e-9 sb=110e-9 sa1=110e-9 sa2=110e-9 sa3=110e-9 sa4=110e-9 sb1=110e-9 sb2=110e-9 sb3=110e-9 spa=140e-9 spa1=140e-9 spa2=140e-9 spa3=140e-9 sap=130.305e-9 spba=745.547e-9 sapb=1.59028e-6 spba1=745.933e-9

** nch_lvt_mac Instance MI18 = hspiceD device xmi18
xmi18 net175 net11 net24 vss nch_lvt_mac l=80e-9 w=240e-9 multi=1 nf=1 sd=140e-9 ad=13.2e-15 as=13.2e-15 pd=460e-9 ps=460e-9 nrd=583.333e-3 nrs=583.333e-3 sa=110e-9 sb=110e-9 sa1=110e-9 sa2=110e-9 sa3=110e-9 sa4=110e-9 sb1=110e-9 sb2=110e-9 sb3=110e-9 spa=140e-9 spa1=140e-9 spa2=140e-9 spa3=140e-9 sap=130.305e-9 spba=745.547e-9 sapb=1.59028e-6 spba1=745.933e-9

** nch_lvt_mac Instance MI13-M_u2 = hspiceD device x21
x21 net145 net9 vss vss nch_lvt_mac l=80e-9 w=300e-9 multi=1 nf=1 sd=140e-9 ad=16.5e-15 as=16.5e-15 pd=520e-9 ps=520e-9 nrd=466.667e-3 nrs=466.667e-3 sa=110e-9 sb=110e-9 sa1=110e-9 sa2=110e-9 sa3=110e-9 sa4=110e-9 sb1=110e-9 sb2=110e-9 sb3=110e-9 spa=140e-9 spa1=140e-9 spa2=140e-9 spa3=140e-9 sap=130.305e-9 spba=745.547e-9 sapb=1.59028e-6 spba1=745.933e-9

** nch_lvt_mac Instance MI30-M_u3 = hspiceD device x22
x22 net149 net24 net169 vss nch_lvt_mac l=80e-9 w=400e-9 multi=1 nf=1 sd=140e-9 ad=22e-15 as=22e-15 pd=620e-9 ps=620e-9 nrd=350e-3 nrs=350e-3 sa=110e-9 sb=110e-9 sa1=110e-9 sa2=110e-9 sa3=110e-9 sa4=110e-9 sb1=110e-9 sb2=110e-9 sb3=110e-9 spa=140e-9 spa1=140e-9 spa2=140e-9 spa3=140e-9 sap=130.305e-9 spba=745.547e-9 sapb=1.59028e-6 spba1=745.933e-9

** nch_lvt_mac Instance MI15 = hspiceD device xmi15
xmi15 net145 net95 net24 vss nch_lvt_mac l=80e-9 w=300e-9 multi=1 nf=1 sd=140e-9 ad=16.5e-15 as=16.5e-15 pd=520e-9 ps=520e-9 nrd=466.667e-3 nrs=466.667e-3 sa=110e-9 sb=110e-9 sa1=110e-9 sa2=110e-9 sa3=110e-9 sa4=110e-9 sb1=110e-9 sb2=110e-9 sb3=110e-9 spa=140e-9 spa1=140e-9 spa2=140e-9 spa3=140e-9 sap=130.305e-9 spba=745.547e-9 sapb=1.59028e-6 spba1=745.933e-9

** nch_lvt_mac Instance MI14-M_u2 = hspiceD device x23
x23 net175 net149 vss vss nch_lvt_mac l=80e-9 w=380e-9 multi=1 nf=1 sd=140e-9 ad=20.9e-15 as=20.9e-15 pd=600e-9 ps=600e-9 nrd=368.421e-3 nrs=368.421e-3 sa=110e-9 sb=110e-9 sa1=110e-9 sa2=110e-9 sa3=110e-9 sa4=110e-9 sb1=110e-9 sb2=110e-9 sb3=110e-9 spa=140e-9 spa1=140e-9 spa2=140e-9 spa3=140e-9 sap=130.305e-9 spba=745.547e-9 sapb=1.59028e-6 spba1=745.933e-9

** nch_lvt_mac Instance MI25-M_u2 = hspiceD device x24
x24 q net149 vss vss nch_lvt_mac l=80e-9 w=620e-9 multi=1 nf=1 sd=140e-9 ad=34.1e-15 as=34.1e-15 pd=840e-9 ps=840e-9 nrd=225.806e-3 nrs=225.806e-3 sa=110e-9 sb=110e-9 sa1=110e-9 sa2=110e-9 sa3=110e-9 sa4=110e-9 sb1=110e-9 sb2=110e-9 sb3=110e-9 spa=140e-9 spa1=140e-9 spa2=140e-9 spa3=140e-9 sap=130.305e-9 spba=745.547e-9 sapb=1.59028e-6 spba1=745.933e-9

** nch_lvt_mac Instance MI39-M_u2 = hspiceD device x25
x25 net95 net11 vss vss nch_lvt_mac l=80e-9 w=620e-9 multi=1 nf=1 sd=140e-9 ad=34.1e-15 as=34.1e-15 pd=840e-9 ps=840e-9 nrd=225.806e-3 nrs=225.806e-3 sa=110e-9 sb=110e-9 sa1=110e-9 sa2=110e-9 sa3=110e-9 sa4=110e-9 sb1=110e-9 sb2=110e-9 sb3=110e-9 spa=140e-9 spa1=140e-9 spa2=140e-9 spa3=140e-9 sap=130.305e-9 spba=745.547e-9 sapb=1.59028e-6 spba1=745.933e-9

** nch_lvt_mac Instance MI36-M_u3 = hspiceD device x26
x26 net149 net24 net132 vss nch_lvt_mac l=80e-9 w=400e-9 multi=1 nf=1 sd=140e-9 ad=22e-15 as=22e-15 pd=620e-9 ps=620e-9 nrd=350e-3 nrs=350e-3 sa=110e-9 sb=110e-9 sa1=110e-9 sa2=110e-9 sa3=110e-9 sa4=110e-9 sb1=110e-9 sb2=110e-9 sb3=110e-9 spa=140e-9 spa1=140e-9 spa2=140e-9 spa3=140e-9 sap=130.305e-9 spba=745.547e-9 sapb=1.59028e-6 spba1=745.933e-9

** nch_lvt_mac Instance MI5 = hspiceD device xmi5
xmi5 net9 d net128 vss nch_lvt_mac l=80e-9 w=620e-9 multi=1 nf=1 sd=140e-9 ad=34.1e-15 as=34.1e-15 pd=840e-9 ps=840e-9 nrd=225.806e-3 nrs=225.806e-3 sa=110e-9 sb=110e-9 sa1=110e-9 sa2=110e-9 sa3=110e-9 sa4=110e-9 sb1=110e-9 sb2=110e-9 sb3=110e-9 spa=140e-9 spa1=140e-9 spa2=140e-9 spa3=140e-9 sap=130.305e-9 spba=745.547e-9 sapb=1.59028e-6 spba1=745.933e-9

** nch_lvt_mac Instance MI31-M_u2 = hspiceD device x27
x27 net11 cp vss vss nch_lvt_mac l=80e-9 w=620e-9 multi=1 nf=1 sd=140e-9 ad=34.1e-15 as=34.1e-15 pd=840e-9 ps=840e-9 nrd=225.806e-3 nrs=225.806e-3 sa=110e-9 sb=110e-9 sa1=110e-9 sa2=110e-9 sa3=110e-9 sa4=110e-9 sb1=110e-9 sb2=110e-9 sb3=110e-9 spa=140e-9 spa1=140e-9 spa2=140e-9 spa3=140e-9 sap=130.305e-9 spba=745.547e-9 sapb=1.59028e-6 spba1=745.933e-9

** nch_lvt_mac Instance MI49 = hspiceD device xmi49
xmi49 net112 cdn vss vss nch_lvt_mac l=80e-9 w=240e-9 multi=1 nf=1 sd=140e-9 ad=13.2e-15 as=13.2e-15 pd=460e-9 ps=460e-9 nrd=583.333e-3 nrs=583.333e-3 sa=110e-9 sb=110e-9 sa1=110e-9 sa2=110e-9 sa3=110e-9 sa4=110e-9 sb1=110e-9 sb2=110e-9 sb3=110e-9 spa=140e-9 spa1=140e-9 spa2=140e-9 spa3=140e-9 sap=130.305e-9 spba=745.547e-9 sapb=1.59028e-6 spba1=745.933e-9

** nch_lvt_mac Instance MI36-M_u4 = hspiceD device x28
x28 net132 cdn vss vss nch_lvt_mac l=80e-9 w=400e-9 multi=1 nf=1 sd=140e-9 ad=22e-15 as=22e-15 pd=620e-9 ps=620e-9 nrd=350e-3 nrs=350e-3 sa=110e-9 sb=110e-9 sa1=110e-9 sa2=110e-9 sa3=110e-9 sa4=110e-9 sb1=110e-9 sb2=110e-9 sb3=110e-9 spa=140e-9 spa1=140e-9 spa2=140e-9 spa3=140e-9 sap=130.305e-9 spba=745.547e-9 sapb=1.59028e-6 spba1=745.933e-9

** nch_lvt_mac Instance MI48 = hspiceD device xmi48
xmi48 net96 net145 net112 vss nch_lvt_mac l=80e-9 w=240e-9 multi=1 nf=1 sd=140e-9 ad=13.2e-15 as=13.2e-15 pd=460e-9 ps=460e-9 nrd=583.333e-3 nrs=583.333e-3 sa=110e-9 sb=110e-9 sa1=110e-9 sa2=110e-9 sa3=110e-9 sa4=110e-9 sb1=110e-9 sb2=110e-9 sb3=110e-9 spa=140e-9 spa1=140e-9 spa2=140e-9 spa3=140e-9 sap=130.305e-9 spba=745.547e-9 sapb=1.59028e-6 spba1=745.933e-9

** nch_lvt_mac Instance MI27-M_u2 = hspiceD device x29
x29 q net149 vss vss nch_lvt_mac l=80e-9 w=620e-9 multi=1 nf=1 sd=140e-9 ad=34.1e-15 as=34.1e-15 pd=840e-9 ps=840e-9 nrd=225.806e-3 nrs=225.806e-3 sa=110e-9 sb=110e-9 sa1=110e-9 sa2=110e-9 sa3=110e-9 sa4=110e-9 sb1=110e-9 sb2=110e-9 sb3=110e-9 spa=140e-9 spa1=140e-9 spa2=140e-9 spa3=140e-9 sap=130.305e-9 spba=745.547e-9 sapb=1.59028e-6 spba1=745.933e-9

** nch_lvt_mac Instance MI28-M_u2 = hspiceD device x30
x30 qn net175 vss vss nch_lvt_mac l=80e-9 w=620e-9 multi=1 nf=1 sd=140e-9 ad=34.1e-15 as=34.1e-15 pd=840e-9 ps=840e-9 nrd=225.806e-3 nrs=225.806e-3 sa=110e-9 sb=110e-9 sa1=110e-9 sa2=110e-9 sa3=110e-9 sa4=110e-9 sb1=110e-9 sb2=110e-9 sb3=110e-9 spa=140e-9 spa1=140e-9 spa2=140e-9 spa3=140e-9 sap=130.305e-9 spba=745.547e-9 sapb=1.59028e-6 spba1=745.933e-9

** nch_lvt_mac Instance MI22-M_u2 = hspiceD device x31
x31 q net149 vss vss nch_lvt_mac l=80e-9 w=620e-9 multi=1 nf=1 sd=140e-9 ad=34.1e-15 as=34.1e-15 pd=840e-9 ps=840e-9 nrd=225.806e-3 nrs=225.806e-3 sa=110e-9 sb=110e-9 sa1=110e-9 sa2=110e-9 sa3=110e-9 sa4=110e-9 sb1=110e-9 sb2=110e-9 sb3=110e-9 spa=140e-9 spa1=140e-9 spa2=140e-9 spa3=140e-9 sap=130.305e-9 spba=745.547e-9 sapb=1.59028e-6 spba1=745.933e-9

** nch_lvt_mac Instance MI47 = hspiceD device xmi47
xmi47 net9 net95 net96 vss nch_lvt_mac l=80e-9 w=240e-9 multi=1 nf=1 sd=140e-9 ad=13.2e-15 as=13.2e-15 pd=460e-9 ps=460e-9 nrd=583.333e-3 nrs=583.333e-3 sa=110e-9 sb=110e-9 sa1=110e-9 sa2=110e-9 sa3=110e-9 sa4=110e-9 sb1=110e-9 sb2=110e-9 sb3=110e-9 spa=140e-9 spa1=140e-9 spa2=140e-9 spa3=140e-9 sap=130.305e-9 spba=745.547e-9 sapb=1.59028e-6 spba1=745.933e-9
.ends DFCND4BWP_LVT_stupid
** End of subcircuit definition.

** Library name: CTDSM_TOP
** Cell name: OTA_XT_MAGICAL
** View name: schematic
** terminal mapping: GND	= gnd
**                   NCAS	= ncas
**                   VCM	= vcm
**                   VDD	= vdd
**                   VIM	= vim
**                   VIP	= vip
**                   VOM	= vom
**                   VOP	= vop
.subckt OTA_XT_MAGICAL gnd ncas vcm vdd vim vip vom vop

** nch_hvt_mac Instance M29 = hspiceD device xm29
xm29 vs vcmon gnd gnd nch_hvt_mac l=120e-9 w=40.5e-6 multi=1 nf=15 sd=140e-9 ad=2.943e-12 as=2.943e-12 pd=45.38e-6 ps=45.38e-6 nrd=864e-6 nrs=864e-6 sa=896.687e-9 sb=896.687e-9 sa1=284.504e-9 sa2=666.903e-9 sa3=924.092e-9 sa4=767.046e-9 sb1=284.504e-9 sb2=666.903e-9 sb3=924.092e-9 spa=168.717e-9 spa1=156.261e-9 spa2=143.536e-9 spa3=146.988e-9 sap=304.808e-9 spba=203.593e-9 sapb=427.516e-9 spba1=208.238e-9

** nch_lvt_mac Instance M5 = hspiceD device xm5
xm5 pcas vcm bias2 gnd nch_lvt_mac l=120e-9 w=4.8e-6 multi=1 nf=5 sd=140e-9 ad=374.4e-15 as=374.4e-15 pd=6.54e-6 ps=6.54e-6 nrd=6.718e-3 nrs=6.718e-3 sa=373.415e-9 sb=373.415e-9 sa1=193.705e-9 sa2=337.407e-9 sa3=554.736e-9 sa4=326.327e-9 sb1=193.705e-9 sb2=337.407e-9 sb3=554.736e-9 spa=238.049e-9 spa1=194.541e-9 spa2=151.735e-9 spa3=163.487e-9 sap=251.082e-9 spba=216.456e-9 sapb=392.862e-9 spba1=221.394e-9

** nch_lvt_mac Instance M30 = hspiceD device xm30
xm30 tail1 nbias_tail gnd gnd nch_lvt_mac l=120e-9 w=20e-6 multi=1 nf=25 sd=140e-9 ad=312e-15 as=312e-15 pd=5.58e-6 ps=5.58e-6 nrd=10.973e-3 nrs=10.973e-3 sa=373.415e-9 sb=373.415e-9 sa1=193.705e-9 sa2=337.407e-9 sa3=554.736e-9 sa4=326.327e-9 sb1=193.705e-9 sb2=337.407e-9 sb3=554.736e-9 spa=238.049e-9 spa1=194.541e-9 spa2=151.735e-9 spa3=163.487e-9 sap=251.082e-9 spba=216.456e-9 sapb=392.862e-9 spba1=221.394e-9

** nch_lvt_mac Instance M53 = hspiceD device xm53
xm53 vcmop net0108 vs2 gnd nch_lvt_mac l=120e-9 w=7.2e-6 multi=1 nf=8 sd=140e-9 ad=504e-15 as=576e-15 pd=8.32e-6 ps=10.28e-6 nrd=5.391e-3 nrs=5.391e-3 sa=541.635e-9 sb=541.635e-9 sa1=228.497e-9 sa2=456.311e-9 sa3=705.096e-9 sa4=466.864e-9 sb1=228.497e-9 sb2=456.311e-9 sb3=705.096e-9 spa=196.864e-9 spa1=171.954e-9 spa2=146.917e-9 spa3=153.744e-9 sap=269.76e-9 spba=208.557e-9 sapb=400.029e-9 spba1=213.315e-9

** nch_lvt_mac Instance M12 = hspiceD device xm12
xm12 vcmon vcm vs2 gnd nch_lvt_mac l=120e-9 w=7.2e-6 multi=1 nf=8 sd=140e-9 ad=504e-15 as=576e-15 pd=8.32e-6 ps=10.28e-6 nrd=5.391e-3 nrs=5.391e-3 sa=541.635e-9 sb=541.635e-9 sa1=228.497e-9 sa2=456.311e-9 sa3=705.096e-9 sa4=466.864e-9 sb1=228.497e-9 sb2=456.311e-9 sb3=705.096e-9 spa=196.864e-9 spa1=171.954e-9 spa2=146.917e-9 spa3=153.744e-9 sap=269.76e-9 spba=208.557e-9 sapb=400.029e-9 spba1=213.315e-9

** nch_lvt_mac Instance M50 = hspiceD device xm50
xm50 vo1p ncas casn gnd nch_lvt_mac l=120e-9 w=9e-6 multi=1 nf=10 sd=140e-9 ad=630e-15 as=702e-15 pd=10.4e-6 ps=12.36e-6 nrd=4.321e-3 nrs=4.321e-3 sa=647.216e-9 sb=647.216e-9 sa1=247.044e-9 sa2=523.665e-9 sa3=779.928e-9 sa4=555.703e-9 sb1=247.044e-9 sb2=523.665e-9 sb3=779.928e-9 spa=184.424e-9 spa1=165.046e-9 spa2=145.432e-9 spa3=150.768e-9 sap=280.949e-9 spba=206.326e-9 sapb=407.976e-9 spba1=211.034e-9

** nch_lvt_mac Instance M49 = hspiceD device xm49
xm49 vo1m ncas casp gnd nch_lvt_mac l=120e-9 w=9e-6 multi=1 nf=10 sd=140e-9 ad=630e-15 as=702e-15 pd=10.4e-6 ps=12.36e-6 nrd=4.321e-3 nrs=4.321e-3 sa=647.216e-9 sb=647.216e-9 sa1=247.044e-9 sa2=523.665e-9 sa3=779.928e-9 sa4=555.703e-9 sb1=247.044e-9 sb2=523.665e-9 sb3=779.928e-9 spa=184.424e-9 spa1=165.046e-9 spa2=145.432e-9 spa3=150.768e-9 sap=280.949e-9 spba=206.326e-9 sapb=407.976e-9 spba1=211.034e-9

** nch_lvt_mac Instance M51 = hspiceD device xm51
xm51 ncas ncas nbias_tail gnd nch_lvt_mac l=120e-9 w=4e-6 multi=1 nf=5 sd=140e-9 ad=312e-15 as=312e-15 pd=5.58e-6 ps=5.58e-6 nrd=10.973e-3 nrs=10.973e-3 sa=373.415e-9 sb=373.415e-9 sa1=193.705e-9 sa2=337.407e-9 sa3=554.736e-9 sa4=326.327e-9 sb1=193.705e-9 sb2=337.407e-9 sb3=554.736e-9 spa=238.049e-9 spa1=194.541e-9 spa2=151.735e-9 spa3=163.487e-9 sap=251.082e-9 spba=216.456e-9 sapb=392.862e-9 spba1=221.394e-9

** nch_lvt_mac Instance M47 = hspiceD device xm47
xm47 nbias_tail vcm bias1 gnd nch_lvt_mac l=120e-9 w=4.8e-6 multi=1 nf=5 sd=140e-9 ad=374.4e-15 as=374.4e-15 pd=6.54e-6 ps=6.54e-6 nrd=6.718e-3 nrs=6.718e-3 sa=373.415e-9 sb=373.415e-9 sa1=193.705e-9 sa2=337.407e-9 sa3=554.736e-9 sa4=326.327e-9 sb1=193.705e-9 sb2=337.407e-9 sb3=554.736e-9 spa=238.049e-9 spa1=194.541e-9 spa2=151.735e-9 spa3=163.487e-9 sap=251.082e-9 spba=216.456e-9 sapb=392.862e-9 spba1=221.394e-9

** nch_lvt_mac Instance M38 = hspiceD device xm38
xm38 bias1 nbias_tail gnd gnd nch_lvt_mac l=120e-9 w=4e-6 multi=1 nf=5 sd=140e-9 ad=312e-15 as=312e-15 pd=5.58e-6 ps=5.58e-6 nrd=10.973e-3 nrs=10.973e-3 sa=373.415e-9 sb=373.415e-9 sa1=193.705e-9 sa2=337.407e-9 sa3=554.736e-9 sa4=326.327e-9 sb1=193.705e-9 sb2=337.407e-9 sb3=554.736e-9 spa=238.049e-9 spa1=194.541e-9 spa2=151.735e-9 spa3=163.487e-9 sap=251.082e-9 spba=216.456e-9 sapb=392.862e-9 spba1=221.394e-9

** nch_lvt_mac Instance M7 = hspiceD device xm7
xm7 vop vim vs gnd nch_lvt_mac l=120e-9 w=36e-6 multi=1 nf=15 sd=160e-9 ad=2.952e-12 as=2.952e-12 pd=40.86e-6 ps=40.86e-6 nrd=824e-6 nrs=824e-6 sa=932.85e-9 sb=932.85e-9 sa1=285.145e-9 sa2=681.55e-9 sa3=946.195e-9 sa4=793.443e-9 sb1=285.145e-9 sb2=681.55e-9 sb3=946.195e-9 spa=189.709e-9 spa1=176.916e-9 spa2=164.001e-9 spa3=167.68e-9 sap=340.02e-9 spba=224.749e-9 sapb=458.761e-9 spba1=229.514e-9

** nch_lvt_mac Instance M43 = hspiceD device xm43
xm43 casn vim tail1 gnd nch_lvt_mac l=120e-9 w=13.5e-6 multi=1 nf=5 sd=140e-9 ad=1.053e-12 as=1.053e-12 pd=16.98e-6 ps=16.98e-6 nrd=2.565e-3 nrs=2.565e-3 sa=373.415e-9 sb=373.415e-9 sa1=193.705e-9 sa2=337.407e-9 sa3=554.736e-9 sa4=326.327e-9 sb1=193.705e-9 sb2=337.407e-9 sb3=554.736e-9 spa=238.049e-9 spa1=194.541e-9 spa2=151.735e-9 spa3=163.487e-9 sap=251.082e-9 spba=216.456e-9 sapb=392.862e-9 spba1=221.394e-9

** nch_lvt_mac Instance M10 = hspiceD device xm10
xm10 vom vip vs gnd nch_lvt_mac l=120e-9 w=36e-6 multi=1 nf=15 sd=160e-9 ad=2.952e-12 as=2.952e-12 pd=40.86e-6 ps=40.86e-6 nrd=824e-6 nrs=824e-6 sa=932.85e-9 sb=932.85e-9 sa1=285.145e-9 sa2=681.55e-9 sa3=946.195e-9 sa4=793.443e-9 sb1=285.145e-9 sb2=681.55e-9 sb3=946.195e-9 spa=189.709e-9 spa1=176.916e-9 spa2=164.001e-9 spa3=167.68e-9 sap=340.02e-9 spba=224.749e-9 sapb=458.761e-9 spba1=229.514e-9

** nch_lvt_mac Instance M40 = hspiceD device xm40