** Generated for: hspiceD
** Generated on: Feb 23 18:48:42 2019
** Design library name: LP_SAR_2
** Design cell name: ADC_CORE
** Design view name: schematic
** .PARAM cu
** 
** 
** .TEMP 25.0
** .OPTION
** +    ARTIST=2
** +    INGOLD=2
** +    PARHIER=LOCAL
** +    PSF=2
** .LIB "/usr/local/packages/tsmc_40/pdk/models/hspice/toplevel.l" top_tt

** Library name: LP_SAR
** Cell name: INV0_LVT
** View name: schematic
** terminal mapping: I	= i
**                   ZN	= zn
**                   VDD	= vdd
**                   VSS	= vss
.subckt type:digital INV0_LVT i zn vdd vss

** nch_lvt_mac Instance M0 = hspiceD device xm0
xm0 zn i vss vss nch_lvt_mac l=40e-9 w=155e-9 multi=1 nf=1 sd=140e-9 ad=17.05e-15 as=17.05e-15 pd=530e-9 ps=530e-9 nrd=249.512e-3 nrs=249.512e-3 sa=110e-9 sb=110e-9 sa1=110e-9 sa2=110e-9 sa3=110e-9 sa4=110e-9 sb1=110e-9 sb2=110e-9 sb3=110e-9 spa=140e-9 spa1=140e-9 spa2=140e-9 spa3=140e-9 sap=130.305e-9 spba=745.547e-9 sapb=1.59028e-6 spba1=745.933e-9

** pch_lvt_mac Instance M1 = hspiceD device xm1
xm1 zn i vdd vdd pch_lvt_mac l=40e-9 w=205e-9 multi=1 nf=1 sd=140e-9 ad=22.55e-15 as=22.55e-15 pd=630e-9 ps=630e-9 nrd=479.34e-3 nrs=479.34e-3 sa=110e-9 sb=110e-9 sa1=110e-9 sa2=110e-9 sa3=110e-9 sa4=110e-9 sb1=110e-9 sb2=110e-9 sb3=110e-9 spa=140e-9 spa1=140e-9 spa2=140e-9 spa3=140e-9 sap=130.305e-9 spba=745.547e-9 sapb=1.59028e-6 spba1=745.933e-9
.ends INV0_LVT
** End of subcircuit definition.

** Library name: LP_SAR
** Cell name: DAC_SWITCHES
** View name: schematic
** terminal mapping: DAC<9>	= dac<9>
**                   DAC<8>	= dac<8>
**                   DAC<7>	= dac<7>
**                   DAC<6>	= dac<6>
**                   DAC<5>	= dac<5>
**                   DAC<4>	= dac<4>
**                   DAC<3>	= dac<3>
**                   DAC<2>	= dac<2>
**                   DAC<1>	= dac<1>
**                   GND	= gnd
**                   IN<9>	= in<9>
**                   IN<8>	= in<8>
**                   IN<7>	= in<7>
**                   IN<6>	= in<6>
**                   IN<5>	= in<5>
**                   IN<4>	= in<4>
**                   IN<3>	= in<3>
**                   IN<2>	= in<2>
**                   IN<1>	= in<1>
**                   VCM	= vcm
**                   VDD	= vdd
**                   VREFN	= vrefn
**                   VREFP	= vrefp
.subckt type:analog DAC_SWITCHES dac<9> dac<8> dac<7> dac<6> dac<5> dac<4> dac<3> dac<2> dac<1> gnd in<9> in<8> in<7> in<6> in<5> in<4> in<3> in<2> in<1> vcm vdd vrefn vrefp

** INV0_LVT Instance I5 = hspiceD device xi5
** Instance of Lib: LP_SAR,  Cell: INV0_LVT, View: schematic
xi5 in<5> dac<5> vrefp vrefn INV0_LVT

** INV0_LVT Instance I3 = hspiceD device xi3
** Instance of Lib: LP_SAR,  Cell: INV0_LVT, View: schematic
xi3 in<7> dac<7> vrefp vrefn INV0_LVT

** INV0_LVT Instance I4 = hspiceD device xi4
** Instance of Lib: LP_SAR,  Cell: INV0_LVT, View: schematic
xi4 in<6> dac<6> vrefp vrefn INV0_LVT

** INV0_LVT Instance I6 = hspiceD device xi6
** Instance of Lib: LP_SAR,  Cell: INV0_LVT, View: schematic
xi6 in<2> dac<2> vrefp vrefn INV0_LVT

** INV0_LVT Instance I7 = hspiceD device xi7
** Instance of Lib: LP_SAR,  Cell: INV0_LVT, View: schematic
xi7 in<3> dac<3> vrefp vrefn INV0_LVT

** INV0_LVT Instance I10 = hspiceD device xi10
** Instance of Lib: LP_SAR,  Cell: INV0_LVT, View: schematic
xi10 in<8> net07 vdd gnd INV0_LVT

** INV0_LVT Instance I9 = hspiceD device xi9
** Instance of Lib: LP_SAR,  Cell: INV0_LVT, View: schematic
xi9 in<1> dac<1> vrefp vcm INV0_LVT

** INV0_LVT Instance I8 = hspiceD device xi8
** Instance of Lib: LP_SAR,  Cell: INV0_LVT, View: schematic
xi8 in<4> dac<4> vrefp vrefn INV0_LVT

** INV0_LVT Instance I0 = hspiceD device xi0
** Instance of Lib: LP_SAR,  Cell: INV0_LVT, View: schematic
xi0 in<9> net91 vdd gnd INV0_LVT

** INV0_LVT Instance I1 = hspiceD device xi1
** Instance of Lib: LP_SAR,  Cell: INV0_LVT, View: schematic
xi1 net91 dac<9> vrefp vrefn INV0_LVT

** INV0_LVT Instance I2 = hspiceD device xi2
** Instance of Lib: LP_SAR,  Cell: INV0_LVT, View: schematic
xi2 net07 dac<8> vrefp vrefn INV0_LVT
.ends DAC_SWITCHES
** End of subcircuit definition.

** Library name: LP_SAR
** Cell name: SAMPLE_NETWORK
** View name: schematic
** terminal mapping: COMP_IN	= comp_in
**                   GND	= gnd
**                   IN<9>	= in<9>
**                   IN<8>	= in<8>
**                   IN<7>	= in<7>
**                   IN<6>	= in<6>
**                   IN<5>	= in<5>
**                   IN<4>	= in<4>
**                   IN<3>	= in<3>
**                   IN<2>	= in<2>
**                   IN<1>	= in<1>
**                   VCM	= vcm
**                   VDD	= vdd
**                   VREFN	= vrefn
**                   VREFP	= vrefp
.subckt type:analog SAMPLE_NETWORK comp_in gnd in<9> in<8> in<7> in<6> in<5> in<4> in<3> in<2> in<1> vcm vdd vrefn vrefp

** DAC_SWITCHES Instance I2 = hspiceD device xi2
** Instance of Lib: LP_SAR,  Cell: DAC_SWITCHES, View: schematic
xi2 dac<9> dac<8> dac<7> dac<6> dac<5> dac<4> dac<3> dac<2> dac<1> gnd in<9> in<8> in<7> in<6> in<5> in<4> in<3> in<2> in<1> vcm vdd vrefn vrefp DAC_SWITCHES
.ends SAMPLE_NETWORK
** End of subcircuit definition.

** Library name: LP_SAR
** Cell name: COMPARATOR
** View name: schematic
** terminal mapping: CLK	= clk
**                   CROSSN	= crossn
**                   CROSSP	= crossp
**                   GND	= gnd
**                   INTERN	= intern
**                   INTERP	= interp
**                   OUTM	= outm
**                   OUTP	= outp
**                   VDD	= vdd
**                   VI+	= _net1
**                   VI-	= _net0
.subckt type:analog COMPARATOR clk crossn crossp gnd intern interp outm outp vdd _net1 _net0

** nch_mac Instance M1 = hspiceD device xm1
xm1 gnd interp gnd gnd nch_mac l=1e-6 w=2e-6 multi=1 nf=1 sd=140e-9 ad=220e-15 as=220e-15 pd=4.22e-6 ps=4.22e-6 nrd=16.426e-3 nrs=16.426e-3 sa=110e-9 sb=110e-9 sa1=110e-9 sa2=110e-9 sa3=110e-9 sa4=110e-9 sb1=110e-9 sb2=110e-9 sb3=110e-9 spa=3e-6 spa1=3e-6 spa2=3e-6 spa3=3e-6 sap=1.00025e-6 spba=1.76068e-6 sapb=577.831e-9 spba1=1.84662e-6

** nch_mac Instance M0 = hspiceD device xm0
xm0 gnd intern gnd gnd nch_mac l=1e-6 w=2e-6 multi=1 nf=1 sd=140e-9 ad=220e-15 as=220e-15 pd=4.22e-6 ps=4.22e-6 nrd=16.426e-3 nrs=16.426e-3 sa=110e-9 sb=110e-9 sa1=110e-9 sa2=110e-9 sa3=110e-9 sa4=110e-9 sb1=110e-9 sb2=110e-9 sb3=110e-9 spa=3e-6 spa1=3e-6 spa2=3e-6 spa3=3e-6 sap=1.00025e-6 spba=1.76068e-6 sapb=577.831e-9 spba1=1.84662e-6

** nch_lvt_mac Instance M16 = hspiceD device xm16
xm16 outm crossp gnd gnd nch_lvt_mac l=40e-9 w=240e-9 multi=1 nf=2 sd=140e-9 ad=16.8e-15 as=26.4e-15 pd=520e-9 ps=920e-9 nrd=100.421e-3 nrs=100.421e-3 sa=163.182e-9 sb=163.182e-9 sa1=136.944e-9 sa2=161.471e-9 sa3=229.143e-9 sa4=159.724e-9 sb1=136.944e-9 sb2=161.471e-9 sb3=229.143e-9 spa=140e-9 spa1=140e-9 spa2=140e-9 spa3=140e-9 sap=147.401e-9 spba=180.71e-9 sapb=242.494e-9 spba1=182.707e-9

** nch_lvt_mac Instance M17 = hspiceD device xm17
xm17 outp crossn gnd gnd nch_lvt_mac l=40e-9 w=240e-9 multi=1 nf=2 sd=140e-9 ad=16.8e-15 as=26.4e-15 pd=520e-9 ps=920e-9 nrd=100.421e-3 nrs=100.421e-3 sa=163.182e-9 sb=163.182e-9 sa1=136.944e-9 sa2=161.471e-9 sa3=229.143e-9 sa4=159.724e-9 sb1=136.944e-9 sb2=161.471e-9 sb3=229.143e-9 spa=140e-9 spa1=140e-9 spa2=140e-9 spa3=140e-9 sap=147.401e-9 spba=180.71e-9 sapb=242.494e-9 spba1=182.707e-9

** nch_lvt_mac Instance M26 = hspiceD device xm26
xm26 net050 clk gnd gnd nch_lvt_mac l=40e-9 w=480e-9 multi=1 nf=4 sd=140e-9 ad=33.6e-15 as=43.2e-15 pd=1.04e-6 ps=1.44e-6 nrd=51.227e-3 nrs=51.227e-3 sa=256.788e-9 sb=256.788e-9 sa1=172.516e-9 sa2=246.369e-9 sa3=404.983e-9 sa4=247.435e-9 sb1=172.516e-9 sb2=246.369e-9 sb3=404.983e-9 spa=140e-9 spa1=140e-9 spa2=140e-9 spa3=140e-9 sap=170.416e-9 spba=168.903e-9 sapb=240.571e-9 spba1=170.77e-9

** nch_lvt_mac Instance M4 = hspiceD device xm4
xm4 crossn crossp intern gnd nch_lvt_mac l=40e-9 w=240e-9 multi=1 nf=2 sd=140e-9 ad=16.8e-15 as=26.4e-15 pd=520e-9 ps=920e-9 nrd=100.421e-3 nrs=100.421e-3 sa=163.182e-9 sb=163.182e-9 sa1=136.944e-9 sa2=161.471e-9 sa3=229.143e-9 sa4=159.724e-9 sb1=136.944e-9 sb2=161.471e-9 sb3=229.143e-9 spa=140e-9 spa1=140e-9 spa2=140e-9 spa3=140e-9 sap=147.401e-9 spba=180.71e-9 sapb=242.494e-9 spba1=182.707e-9

** nch_lvt_mac Instance M3 = hspiceD device xm3
xm3 crossp crossn interp gnd nch_lvt_mac l=40e-9 w=240e-9 multi=1 nf=2 sd=140e-9 ad=16.8e-15 as=26.4e-15 pd=520e-9 ps=920e-9 nrd=100.421e-3 nrs=100.421e-3 sa=163.182e-9 sb=163.182e-9 sa1=136.944e-9 sa2=161.471e-9 sa3=229.143e-9 sa4=159.724e-9 sb1=136.944e-9 sb2=161.471e-9 sb3=229.143e-9 spa=140e-9 spa1=140e-9 spa2=140e-9 spa3=140e-9 sap=147.401e-9 spba=180.71e-9 sapb=242.494e-9 spba1=182.707e-9

** nch_lvt_mac Instance M25 = hspiceD device xm25
xm25 interp _net0 net050 gnd nch_lvt_mac l=40e-9 w=1.92e-6 multi=1 nf=16 sd=140e-9 ad=134.4e-15 as=144e-15 pd=4.16e-6 ps=4.56e-6 nrd=13.004e-3 nrs=13.004e-3 sa=710.014e-9 sb=710.014e-9 sa1=275.611e-9 sa2=566.444e-9 sa3=840.809e-9 sa4=675.061e-9 sb1=275.611e-9 sb2=566.444e-9 sb3=840.809e-9 spa=140e-9 spa1=140e-9 spa2=140e-9 spa3=140e-9 sap=237.899e-9 spba=162.738e-9 sapb=283.746e-9 spba1=164.536e-9

** nch_lvt_mac Instance M24 = hspiceD device xm24
xm24 intern _net1 net050 gnd nch_lvt_mac l=40e-9 w=1.92e-6 multi=1 nf=16 sd=140e-9 ad=134.4e-15 as=144e-15 pd=4.16e-6 ps=4.56e-6 nrd=13.004e-3 nrs=13.004e-3 sa=710.014e-9 sb=710.014e-9 sa1=275.611e-9 sa2=566.444e-9 sa3=840.809e-9 sa4=675.061e-9 sb1=275.611e-9 sb2=566.444e-9 sb3=840.809e-9 spa=140e-9 spa1=140e-9 spa2=140e-9 spa3=140e-9 sap=237.899e-9 spba=162.738e-9 sapb=283.746e-9 spba1=164.536e-9

** pch_lvt_mac Instance M8 = hspiceD device xm8
xm8 outm crossp vdd vdd pch_lvt_mac l=40e-9 w=480e-9 multi=1 nf=4 sd=140e-9 ad=33.6e-15 as=43.2e-15 pd=1.04e-6 ps=1.44e-6 nrd=65.248e-3 nrs=65.248e-3 sa=256.788e-9 sb=256.788e-9 sa1=172.516e-9 sa2=246.369e-9 sa3=404.983e-9 sa4=247.435e-9 sb1=172.516e-9 sb2=246.369e-9 sb3=404.983e-9 spa=140e-9 spa1=140e-9 spa2=140e-9 spa3=140e-9 sap=170.416e-9 spba=168.903e-9 sapb=240.571e-9 spba1=170.77e-9

** pch_lvt_mac Instance M18 = hspiceD device xm18
xm18 intern clk vdd vdd pch_lvt_mac l=40e-9 w=240e-9 multi=1 nf=1 sd=140e-9 ad=26.4e-15 as=26.4e-15 pd=700e-9 ps=700e-9 nrd=561.178e-3 nrs=561.178e-3 sa=110e-9 sb=110e-9 sa1=110e-9 sa2=110e-9 sa3=110e-9 sa4=110e-9 sb1=110e-9 sb2=110e-9 sb3=110e-9 spa=140e-9 spa1=140e-9 spa2=140e-9 spa3=140e-9 sap=130.305e-9 spba=745.547e-9 sapb=1.59028e-6 spba1=745.933e-9

** pch_lvt_mac Instance M15 = hspiceD device xm15
xm15 outp crossn vdd vdd pch_lvt_mac l=40e-9 w=480e-9 multi=1 nf=4 sd=140e-9 ad=33.6e-15 as=43.2e-15 pd=1.04e-6 ps=1.44e-6 nrd=65.248e-3 nrs=65.248e-3 sa=256.788e-9 sb=256.788e-9 sa1=172.516e-9 sa2=246.369e-9 sa3=404.983e-9 sa4=247.435e-9 sb1=172.516e-9 sb2=246.369e-9 sb3=404.983e-9 spa=140e-9 spa1=140e-9 spa2=140e-9 spa3=140e-9 sap=170.416e-9 spba=168.903e-9 sapb=240.571e-9 spba1=170.77e-9

** pch_lvt_mac Instance M19 = hspiceD device xm19
xm19 interp clk vdd vdd pch_lvt_mac l=40e-9 w=240e-9 multi=1 nf=1 sd=140e-9 ad=26.4e-15 as=26.4e-15 pd=700e-9 ps=700e-9 nrd=561.178e-3 nrs=561.178e-3 sa=110e-9 sb=110e-9 sa1=110e-9 sa2=110e-9 sa3=110e-9 sa4=110e-9 sb1=110e-9 sb2=110e-9 sb3=110e-9 spa=140e-9 spa1=140e-9 spa2=140e-9 spa3=140e-9 sap=130.305e-9 spba=745.547e-9 sapb=1.59028e-6 spba1=745.933e-9

** pch_lvt_mac Instance M10 = hspiceD device xm10
xm10 crossn clk vdd vdd pch_lvt_mac l=40e-9 w=240e-9 multi=1 nf=1 sd=140e-9 ad=26.4e-15 as=26.4e-15 pd=700e-9 ps=700e-9 nrd=561.178e-3 nrs=561.178e-3 sa=110e-9 sb=110e-9 sa1=110e-9 sa2=110e-9 sa3=110e-9 sa4=110e-9 sb1=110e-9 sb2=110e-9 sb3=110e-9 spa=140e-9 spa1=140e-9 spa2=140e-9 spa3=140e-9 sap=130.305e-9 spba=745.547e-9 sapb=1.59028e-6 spba1=745.933e-9

** pch_lvt_mac Instance M12 = hspiceD device xm12
xm12 crossp clk vdd vdd pch_lvt_mac l=40e-9 w=240e-9 multi=1 nf=1 sd=140e-9 ad=26.4e-15 as=26.4e-15 pd=700e-9 ps=700e-9 nrd=561.178e-3 nrs=561.178e-3 sa=110e-9 sb=110e-9 sa1=110e-9 sa2=110e-9 sa3=110e-9 sa4=110e-9 sb1=110e-9 sb2=110e-9 sb3=110e-9 spa=140e-9 spa1=140e-9 spa2=140e-9 spa3=140e-9 sap=130.305e-9 spba=745.547e-9 sapb=1.59028e-6 spba1=745.933e-9

** pch_lvt_mac Instance M14 = hspiceD device xm14
xm14 crossn crossp vdd vdd pch_lvt_mac l=40e-9 w=480e-9 multi=1 nf=4 sd=140e-9 ad=33.6e-15 as=43.2e-15 pd=1.04e-6 ps=1.44e-6 nrd=65.248e-3 nrs=65.248e-3 sa=256.788e-9 sb=256.788e-9 sa1=172.516e-9 sa2=246.369e-9 sa3=404.983e-9 sa4=247.435e-9 sb1=172.516e-9 sb2=246.369e-9 sb3=404.983e-9 spa=140e-9 spa1=140e-9 spa2=140e-9 spa3=140e-9 sap=170.416e-9 spba=168.903e-9 sapb=240.571e-9 spba1=170.77e-9

** pch_lvt_mac Instance M13 = hspiceD device xm13
xm13 crossp crossn vdd vdd pch_lvt_mac l=40e-9 w=480e-9 multi=1 nf=4 sd=140e-9 ad=33.6e-15 as=43.2e-15 pd=1.04e-6 ps=1.44e-6 nrd=65.248e-3 nrs=65.248e-3 sa=256.788e-9 sb=256.788e-9 sa1=172.516e-9 sa2=246.369e-9 sa3=404.983e-9 sa4=247.435e-9 sb1=172.516e-9 sb2=246.369e-9 sb3=404.983e-9 spa=140e-9 spa1=140e-9 spa2=140e-9 spa3=140e-9 sap=170.416e-9 spba=168.903e-9 sapb=240.571e-9 spba1=170.77e-9
.ends COMPARATOR
** End of subcircuit definition.

** Library name: tcbn40lpbwp
** Cell name: INVD0BWP
** View name: schematic
** terminal mapping: I	= i
**                   ZN	= zn
**                   VDD	= vdd
**                   VSS	= vss
.subckt type:digital INVD0BWP i zn vdd vss

** nch Instance MU1-M_u2 = hspiceD device m0
m0 zn i vss vss nch l=40e-9 w=155e-9 m=1 nf=1 sd=140e-9 ad=17.05e-15 as=17.05e-15 pd=530e-9 ps=530e-9 nrd=451.613e-3 nrs=451.613e-3 sa=110e-9 sb=110e-9

** pch Instance MU1-M_u3 = hspiceD device m1
m1 zn i vdd vdd pch l=40e-9 w=205e-9 m=1 nf=1 sd=140e-9 ad=22.55e-15 as=22.55e-15 pd=630e-9 ps=630e-9 nrd=341.463e-3 nrs=341.463e-3 sa=110e-9 sb=110e-9
.ends INVD0BWP
** End of subcircuit definition.

** Library name: LP_SAR
** Cell name: LATCH
** View name: schematic
** terminal mapping: CLK	= clk
**                   GND	= gnd
**                   INM	= inm
**                   INP	= inp
**                   OUTM	= outm
**                   OUTP	= outp
**                   VCC	= vcc
.subckt type:analog LATCH clk gnd inm inp outm outp vcc

** INVD0BWP Instance I1 = hspiceD device xi1
** Instance of Lib: tcbn40lpbwp,  Cell: INVD0BWP, View: schematic
xi1 net67 outp vcc gnd INVD0BWP

** INVD0BWP Instance I0 = hspiceD device xi0
** Instance of Lib: tcbn40lpbwp,  Cell: INVD0BWP, View: schematic
xi0 net64 outm vcc gnd INVD0BWP

** pch_mac Instance M10 = hspiceD device xm10
xm10 net64 clk vcc vcc pch_mac l=40e-9 w=120e-9 multi=1 nf=1 sd=140e-9 ad=13.2e-15 as=13.2e-15 pd=460e-9 ps=460e-9 nrd=280.589e-3 nrs=280.589e-3 sa=110e-9 sb=110e-9 sa1=110e-9 sa2=110e-9 sa3=110e-9 sa4=110e-9 sb1=110e-9 sb2=110e-9 sb3=110e-9 spa=140e-9 spa1=140e-9 spa2=140e-9 spa3=140e-9 sap=130.305e-9 spba=745.547e-9 sapb=1.59028e-6 spba1=745.933e-9

** pch_mac Instance M9 = hspiceD device xm9
xm9 net67 clk vcc vcc pch_mac l=40e-9 w=120e-9 multi=1 nf=1 sd=140e-9 ad=13.2e-15 as=13.2e-15 pd=460e-9 ps=460e-9 nrd=280.589e-3 nrs=280.589e-3 sa=110e-9 sb=110e-9 sa1=110e-9 sa2=110e-9 sa3=110e-9 sa4=110e-9 sb1=110e-9 sb2=110e-9 sb3=110e-9 spa=140e-9 spa1=140e-9 spa2=140e-9 spa3=140e-9 sap=130.305e-9 spba=745.547e-9 sapb=1.59028e-6 spba1=745.933e-9

** pch_mac Instance M13 = hspiceD device xm13
xm13 net67 net64 vcc vcc pch_mac l=40e-9 w=240e-9 multi=1 nf=2 sd=140e-9 ad=16.8e-15 as=26.4e-15 pd=520e-9 ps=920e-9 nrd=133.606e-3 nrs=133.606e-3 sa=163.182e-9 sb=163.182e-9 sa1=136.944e-9 sa2=161.471e-9 sa3=229.143e-9 sa4=159.724e-9 sb1=136.944e-9 sb2=161.471e-9 sb3=229.143e-9 spa=140e-9 spa1=140e-9 spa2=140e-9 spa3=140e-9 sap=147.401e-9 spba=180.71e-9 sapb=242.494e-9 spba1=182.707e-9

** pch_mac Instance M4 = hspiceD device xm4
xm4 net64 net67 vcc vcc pch_mac l=40e-9 w=240e-9 multi=1 nf=2 sd=140e-9 ad=16.8e-15 as=26.4e-15 pd=520e-9 ps=920e-9 nrd=133.606e-3 nrs=133.606e-3 sa=163.182e-9 sb=163.182e-9 sa1=136.944e-9 sa2=161.471e-9 sa3=229.143e-9 sa4=159.724e-9 sb1=136.944e-9 sb2=161.471e-9 sb3=229.143e-9 spa=140e-9 spa1=140e-9 spa2=140e-9 spa3=140e-9 sap=147.401e-9 spba=180.71e-9 sapb=242.494e-9 spba1=182.707e-9

** pch_mac Instance M8 = hspiceD device xm8
xm8 net65 clk vcc vcc pch_mac l=40e-9 w=120e-9 multi=1 nf=1 sd=140e-9 ad=13.2e-15 as=13.2e-15 pd=460e-9 ps=460e-9 nrd=280.589e-3 nrs=280.589e-3 sa=110e-9 sb=110e-9 sa1=110e-9 sa2=110e-9 sa3=110e-9 sa4=110e-9 sb1=110e-9 sb2=110e-9 sb3=110e-9 spa=140e-9 spa1=140e-9 spa2=140e-9 spa3=140e-9 sap=130.305e-9 spba=745.547e-9 sapb=1.59028e-6 spba1=745.933e-9

** pch_mac Instance M12 = hspiceD device xm12
xm12 net012 clk vcc vcc pch_mac l=40e-9 w=120e-9 multi=1 nf=1 sd=140e-9 ad=13.2e-15 as=13.2e-15 pd=460e-9 ps=460e-9 nrd=280.589e-3 nrs=280.589e-3 sa=110e-9 sb=110e-9 sa1=110e-9 sa2=110e-9 sa3=110e-9 sa4=110e-9 sb1=110e-9 sb2=110e-9 sb3=110e-9 spa=140e-9 spa1=140e-9 spa2=140e-9 spa3=140e-9 sap=130.305e-9 spba=745.547e-9 sapb=1.59028e-6 spba1=745.933e-9

** nch_mac Instance M11 = hspiceD device xm11
xm11 net60 clk gnd gnd nch_mac l=40e-9 w=120e-9 multi=1 nf=1 sd=140e-9 ad=13.2e-15 as=13.2e-15 pd=460e-9 ps=460e-9 nrd=193.171e-3 nrs=193.171e-3 sa=110e-9 sb=110e-9 sa1=110e-9 sa2=110e-9 sa3=110e-9 sa4=110e-9 sb1=110e-9 sb2=110e-9 sb3=110e-9 spa=140e-9 spa1=140e-9 spa2=140e-9 spa3=140e-9 sap=130.305e-9 spba=745.547e-9 sapb=1.59028e-6 spba1=745.933e-9

** nch_mac Instance M0 = hspiceD device xm0
xm0 net65 inp net60 gnd nch_mac l=40e-9 w=120e-9 multi=1 nf=1 sd=140e-9 ad=13.2e-15 as=13.2e-15 pd=460e-9 ps=460e-9 nrd=193.171e-3 nrs=193.171e-3 sa=110e-9 sb=110e-9 sa1=110e-9 sa2=110e-9 sa3=110e-9 sa4=110e-9 sb1=110e-9 sb2=110e-9 sb3=110e-9 spa=140e-9 spa1=140e-9 spa2=140e-9 spa3=140e-9 sap=130.305e-9 spba=745.547e-9 sapb=1.59028e-6 spba1=745.933e-9

** nch_mac Instance M2 = hspiceD device xm2
xm2 net67 net64 net65 gnd nch_mac l=40e-9 w=120e-9 multi=1 nf=1 sd=140e-9 ad=13.2e-15 as=13.2e-15 pd=460e-9 ps=460e-9 nrd=193.171e-3 nrs=193.171e-3 sa=110e-9 sb=110e-9 sa1=110e-9 sa2=110e-9 sa3=110e-9 sa4=110e-9 sb1=110e-9 sb2=110e-9 sb3=110e-9 spa=140e-9 spa1=140e-9 spa2=140e-9 spa3=140e-9 sap=130.305e-9 spba=745.547e-9 sapb=1.59028e-6 spba1=745.933e-9

** nch_mac Instance M3 = hspiceD device xm3
xm3 net64 net67 net012 gnd nch_mac l=40e-9 w=120e-9 multi=1 nf=1 sd=140e-9 ad=13.2e-15 as=13.2e-15 pd=460e-9 ps=460e-9 nrd=193.171e-3 nrs=193.171e-3 sa=110e-9 sb=110e-9 sa1=110e-9 sa2=110e-9 sa3=110e-9 sa4=110e-9 sb1=110e-9 sb2=110e-9 sb3=110e-9 spa=140e-9 spa1=140e-9 spa2=140e-9 spa3=140e-9 sap=130.305e-9 spba=745.547e-9 sapb=1.59028e-6 spba1=745.933e-9

** nch_mac Instance M1 = hspiceD device xm1
xm1 net012 inm net60 gnd nch_mac l=40e-9 w=120e-9 multi=1 nf=1 sd=140e-9 ad=13.2e-15 as=13.2e-15 pd=460e-9 ps=460e-9 nrd=193.171e-3 nrs=193.171e-3 sa=110e-9 sb=110e-9 sa1=110e-9 sa2=110e-9 sa3=110e-9 sa4=110e-9 sb1=110e-9 sb2=110e-9 sb3=110e-9 spa=140e-9 spa1=140e-9 spa2=140e-9 spa3=140e-9 sap=130.305e-9 spba=745.547e-9 sapb=1.59028e-6 spba1=745.933e-9
.ends LATCH
** End of subcircuit definition.

** Library name: LP_SAR
** Cell name: SAR_LOGIC_2ND_STAGE
** View name: schematic
** terminal mapping: COMP	= comp
**                   COMPB	= compb
**                   GND	= gnd
**                   Q<9>	= q<9>
**                   Q<8>	= q<8>
**                   Q<7>	= q<7>
**                   Q<6>	= q<6>
**                   Q<5>	= q<5>
**                   Q<4>	= q<4>
**                   Q<3>	= q<3>
**                   Q<2>	= q<2>
**                   Q<1>	= q<1>
**                   QB<9>	= qb<9>
**                   QB<8>	= qb<8>
**                   QB<7>	= qb<7>
**                   QB<6>	= qb<6>
**                   QB<5>	= qb<5>
**                   QB<4>	= qb<4>
**                   QB<3>	= qb<3>
**                   QB<2>	= qb<2>
**                   QB<1>	= qb<1>
**                   S<10>	= s<10>
**                   S<9>	= s<9>
**                   S<8>	= s<8>
**                   S<7>	= s<7>
**                   S<6>	= s<6>
**                   S<5>	= s<5>
**                   S<4>	= s<4>
**                   S<3>	= s<3>
**                   S<2>	= s<2>
**                   S<1>	= s<1>
**                   VDD	= vdd
**                   Q<0>	= q<0>
**                   QB<0>	= qb<0>
**                   S<0>	= s<0>
.subckt type:mixed SAR_LOGIC_2ND_STAGE comp compb gnd q<9> q<8> q<7> q<6> q<5> q<4> q<3> q<2> q<1> qb<9> qb<8> qb<7> qb<6> qb<5> qb<4> qb<3> qb<2> qb<1> s<10> s<9> s<8> s<7> s<6> s<5> s<4> s<3> s<2> s<1> vdd q<0> qb<0> s<0>

** LATCH Instance I1<9:1> = hspiceD device xi1<9>
** Instance of Lib: LP_SAR,  Cell: LATCH, View: schematic
xi1<9> s<9> gnd compb comp net03<0> net04<0> vdd LATCH

** LATCH Instance I1<9:1> = hspiceD device xi1<8>
** Instance of Lib: LP_SAR,  Cell: LATCH, View: schematic
xi1<8> s<8> gnd compb comp net03<1> net04<1> vdd LATCH

** LATCH Instance I1<9:1> = hspiceD device xi1<7>
** Instance of Lib: LP_SAR,  Cell: LATCH, View: schematic
xi1<7> s<7> gnd compb comp net03<2> net04<2> vdd LATCH

** LATCH Instance I1<9:1> = hspiceD device xi1<6>
** Instance of Lib: LP_SAR,  Cell: LATCH, View: schematic
xi1<6> s<6> gnd compb comp net03<3> net04<3> vdd LATCH

** LATCH Instance I1<9:1> = hspiceD device xi1<5>
** Instance of Lib: LP_SAR,  Cell: LATCH, View: schematic
xi1<5> s<5> gnd compb comp net03<4> net04<4> vdd LATCH

** LATCH Instance I1<9:1> = hspiceD device xi1<4>
** Instance of Lib: LP_SAR,  Cell: LATCH, View: schematic
xi1<4> s<4> gnd compb comp net03<5> net04<5> vdd LATCH

** LATCH Instance I1<9:1> = hspiceD device xi1<3>
** Instance of Lib: LP_SAR,  Cell: LATCH, View: schematic
xi1<3> s<3> gnd compb comp net03<6> net04<6> vdd LATCH

** LATCH Instance I1<9:1> = hspiceD device xi1<2>
** Instance of Lib: LP_SAR,  Cell: LATCH, View: schematic
xi1<2> s<2> gnd compb comp net03<7> net04<7> vdd LATCH

** LATCH Instance I1<9:1> = hspiceD device xi1<1>
** Instance of Lib: LP_SAR,  Cell: LATCH, View: schematic
xi1<1> s<1> gnd compb comp net03<8> net04<8> vdd LATCH

** LATCH Instance I0 = hspiceD device xi0
** Instance of Lib: LP_SAR,  Cell: LATCH, View: schematic
xi0 s<10> gnd compb comp qb<9> q<9> vdd LATCH

** INVD0BWP Instance I2<9:1> = hspiceD device xi2<9>
** Instance of Lib: tcbn40lpbwp,  Cell: INVD0BWP, View: schematic
xi2<9> net04<0> qb<8> vdd gnd INVD0BWP

** INVD0BWP Instance I2<9:1> = hspiceD device xi2<8>
** Instance of Lib: tcbn40lpbwp,  Cell: INVD0BWP, View: schematic
xi2<8> net04<1> qb<7> vdd gnd INVD0BWP

** INVD0BWP Instance I2<9:1> = hspiceD device xi2<7>
** Instance of Lib: tcbn40lpbwp,  Cell: INVD0BWP, View: schematic
xi2<7> net04<2> qb<6> vdd gnd INVD0BWP

** INVD0BWP Instance I2<9:1> = hspiceD device xi2<6>
** Instance of Lib: tcbn40lpbwp,  Cell: INVD0BWP, View: schematic
xi2<6> net04<3> qb<5> vdd gnd INVD0BWP

** INVD0BWP Instance I2<9:1> = hspiceD device xi2<5>
** Instance of Lib: tcbn40lpbwp,  Cell: INVD0BWP, View: schematic
xi2<5> net04<4> qb<4> vdd gnd INVD0BWP

** INVD0BWP Instance I2<9:1> = hspiceD device xi2<4>
** Instance of Lib: tcbn40lpbwp,  Cell: INVD0BWP, View: schematic
xi2<4> net04<5> qb<3> vdd gnd INVD0BWP

** INVD0BWP Instance I2<9:1> = hspiceD device xi2<3>
** Instance of Lib: tcbn40lpbwp,  Cell: INVD0BWP, View: schematic
xi2<3> net04<6> qb<2> vdd gnd INVD0BWP

** INVD0BWP Instance I2<9:1> = hspiceD device xi2<2>
** Instance of Lib: tcbn40lpbwp,  Cell: INVD0BWP, View: schematic
xi2<2> net04<7> qb<1> vdd gnd INVD0BWP

** INVD0BWP Instance I2<9:1> = hspiceD device xi2<1>
** Instance of Lib: tcbn40lpbwp,  Cell: INVD0BWP, View: schematic
xi2<1> net04<8> qb<0> vdd gnd INVD0BWP

** INVD0BWP Instance I3<9:1> = hspiceD device xi3<9>
** Instance of Lib: tcbn40lpbwp,  Cell: INVD0BWP, View: schematic
xi3<9> net03<0> q<8> vdd gnd INVD0BWP

** INVD0BWP Instance I3<9:1> = hspiceD device xi3<8>
** Instance of Lib: tcbn40lpbwp,  Cell: INVD0BWP, View: schematic
xi3<8> net03<1> q<7> vdd gnd INVD0BWP

** INVD0BWP Instance I3<9:1> = hspiceD device xi3<7>
** Instance of Lib: tcbn40lpbwp,  Cell: INVD0BWP, View: schematic
xi3<7> net03<2> q<6> vdd gnd INVD0BWP

** INVD0BWP Instance I3<9:1> = hspiceD device xi3<6>
** Instance of Lib: tcbn40lpbwp,  Cell: INVD0BWP, View: schematic
xi3<6> net03<3> q<5> vdd gnd INVD0BWP

** INVD0BWP Instance I3<9:1> = hspiceD device xi3<5>
** Instance of Lib: tcbn40lpbwp,  Cell: INVD0BWP, View: schematic
xi3<5> net03<4> q<4> vdd gnd INVD0BWP

** INVD0BWP Instance I3<9:1> = hspiceD device xi3<4>
** Instance of Lib: tcbn40lpbwp,  Cell: INVD0BWP, View: schematic
xi3<4> net03<5> q<3> vdd gnd INVD0BWP

** INVD0BWP Instance I3<9:1> = hspiceD device xi3<3>
** Instance of Lib: tcbn40lpbwp,  Cell: INVD0BWP, View: schematic
xi3<3> net03<6> q<2> vdd gnd INVD0BWP

** INVD0BWP Instance I3<9:1> = hspiceD device xi3<2>
** Instance of Lib: tcbn40lpbwp,  Cell: INVD0BWP, View: schematic
xi3<2> net03<7> q<1> vdd gnd INVD0BWP

** INVD0BWP Instance I3<9:1> = hspiceD device xi3<1>
** Instance of Lib: tcbn40lpbwp,  Cell: INVD0BWP, View: schematic
xi3<1> net03<8> q<0> vdd gnd INVD0BWP
.ends SAR_LOGIC_2ND_STAGE
** End of subcircuit definition.

** Library name: tcbn40lpbwp
** Cell name: DFSNQD1BWP
** View name: schematic
** terminal mapping: D	= d
**                   CP	= cp
**                   SDN	= sdn
**                   Q	= q
**                   VDD	= vdd
**                   VSS	= vss
.subckt type:digital DFSNQD1BWP d cp sdn q vdd vss

** nch Instance MI32-M_u4 = hspiceD device m0
m0 net44 net25 vss vss nch l=40e-9 w=310e-9 m=1 nf=1 sd=140e-9 ad=34.1e-15 as=34.1e-15 pd=840e-9 ps=840e-9 nrd=225.806e-3 nrs=225.806e-3 sa=110e-9 sb=110e-9

** nch Instance MI55-M_u2 = hspiceD device m1
m1 net11 cp vss vss nch l=40e-9 w=155e-9 m=1 nf=1 sd=140e-9 ad=17.05e-15 as=17.05e-15 pd=530e-9 ps=530e-9 nrd=451.613e-3 nrs=451.613e-3 sa=110e-9 sb=110e-9

** nch Instance MI60-M_u2 = hspiceD device m2
m2 q net13 vss vss nch l=40e-9 w=310e-9 m=1 nf=1 sd=140e-9 ad=34.1e-15 as=34.1e-15 pd=840e-9 ps=840e-9 nrd=225.806e-3 nrs=225.806e-3 sa=110e-9 sb=110e-9

** nch Instance MI32-M_u3 = hspiceD device m3
m3 net7 sdn net44 vss nch l=40e-9 w=310e-9 m=1 nf=1 sd=140e-9 ad=34.1e-15 as=34.1e-15 pd=840e-9 ps=840e-9 nrd=225.806e-3 nrs=225.806e-3 sa=110e-9 sb=110e-9

** nch Instance MI31-M_u4 = hspiceD device m4
m4 net37 net13 vss vss nch l=40e-9 w=120e-9 m=1 nf=1 sd=140e-9 ad=13.2e-15 as=13.2e-15 pd=460e-9 ps=460e-9 nrd=583.333e-3 nrs=583.333e-3 sa=110e-9 sb=110e-9

** nch Instance MI31-M_u3 = hspiceD device m5
m5 net33 sdn net37 vss nch l=40e-9 w=120e-9 m=1 nf=1 sd=140e-9 ad=13.2e-15 as=13.2e-15 pd=460e-9 ps=460e-9 nrd=583.333e-3 nrs=583.333e-3 sa=110e-9 sb=110e-9

** nch Instance MI20 = hspiceD device mi20
mi20 net7 net83 net63 vss nch l=40e-9 w=310e-9 m=1 nf=1 sd=140e-9 ad=34.1e-15 as=34.1e-15 pd=840e-9 ps=840e-9 nrd=225.806e-3 nrs=225.806e-3 sa=110e-9 sb=110e-9

** nch Instance MI23 = hspiceD device mi23
mi23 net25 net83 net5 vss nch l=40e-9 w=120e-9 m=1 nf=1 sd=140e-9 ad=13.2e-15 as=13.2e-15 pd=460e-9 ps=460e-9 nrd=583.333e-3 nrs=583.333e-3 sa=110e-9 sb=110e-9

** nch Instance MI22 = hspiceD device mi22
mi22 net33 net11 net63 vss nch l=40e-9 w=120e-9 m=1 nf=1 sd=140e-9 ad=13.2e-15 as=13.2e-15 pd=460e-9 ps=460e-9 nrd=583.333e-3 nrs=583.333e-3 sa=110e-9 sb=110e-9

** nch Instance MI21 = hspiceD device mi21
mi21 net25 d net20 vss nch l=40e-9 w=310e-9 m=1 nf=1 sd=140e-9 ad=34.1e-15 as=34.1e-15 pd=840e-9 ps=840e-9 nrd=225.806e-3 nrs=225.806e-3 sa=110e-9 sb=110e-9

** nch Instance MI25-M_u2 = hspiceD device m6
m6 net13 net63 vss vss nch l=40e-9 w=310e-9 m=1 nf=1 sd=140e-9 ad=34.1e-15 as=34.1e-15 pd=840e-9 ps=840e-9 nrd=225.806e-3 nrs=225.806e-3 sa=110e-9 sb=110e-9

** nch Instance MI19 = hspiceD device mi19
mi19 net20 net11 vss vss nch l=40e-9 w=310e-9 m=1 nf=1 sd=140e-9 ad=34.1e-15 as=34.1e-15 pd=840e-9 ps=840e-9 nrd=225.806e-3 nrs=225.806e-3 sa=110e-9 sb=110e-9

** nch Instance MI24 = hspiceD device mi24
mi24 net5 net7 vss vss nch l=40e-9 w=120e-9 m=1 nf=1 sd=140e-9 ad=13.2e-15 as=13.2e-15 pd=460e-9 ps=460e-9 nrd=583.333e-3 nrs=583.333e-3 sa=110e-9 sb=110e-9

** nch Instance MI40-M_u2 = hspiceD device m7
m7 net83 net11 vss vss nch l=40e-9 w=155e-9 m=1 nf=1 sd=140e-9 ad=17.05e-15 as=17.05e-15 pd=530e-9 ps=530e-9 nrd=451.613e-3 nrs=451.613e-3 sa=110e-9 sb=110e-9

** pch Instance MI55-M_u3 = hspiceD device m8
m8 net11 cp vdd vdd pch l=40e-9 w=205e-9 m=1 nf=1 sd=140e-9 ad=22.55e-15 as=22.55e-15 pd=630e-9 ps=630e-9 nrd=341.463e-3 nrs=341.463e-3 sa=110e-9 sb=110e-9

** pch Instance MI33 = hspiceD device mi33
mi33 net33 net83 net63 vdd pch l=40e-9 w=120e-9 m=1 nf=1 sd=140e-9 ad=13.2e-15 as=13.2e-15 pd=460e-9 ps=460e-9 nrd=583.333e-3 nrs=583.333e-3 sa=110e-9 sb=110e-9

** pch Instance MI32-M_u1 = hspiceD device m9
m9 net7 sdn vdd vdd pch l=40e-9 w=410e-9 m=1 nf=1 sd=140e-9 ad=45.1e-15 as=45.1e-15 pd=1.04e-6 ps=1.04e-6 nrd=170.732e-3 nrs=170.732e-3 sa=110e-9 sb=110e-9

** pch Instance MI60-M_u3 = hspiceD device m10
m10 q net13 vdd vdd pch l=40e-9 w=410e-9 m=1 nf=1 sd=140e-9 ad=45.1e-15 as=45.1e-15 pd=1.04e-6 ps=1.04e-6 nrd=170.732e-3 nrs=170.732e-3 sa=110e-9 sb=110e-9

** pch Instance MI34 = hspiceD device mi34
mi34 net25 net11 net96 vdd pch l=40e-9 w=120e-9 m=1 nf=1 sd=140e-9 ad=13.2e-15 as=13.2e-15 pd=460e-9 ps=460e-9 nrd=583.333e-3 nrs=583.333e-3 sa=110e-9 sb=110e-9

** pch Instance MI30 = hspiceD device mi30
mi30 net7 net11 net63 vdd pch l=40e-9 w=250e-9 m=1 nf=1 sd=140e-9 ad=27.5e-15 as=27.5e-15 pd=720e-9 ps=720e-9 nrd=280e-3 nrs=280e-3 sa=110e-9 sb=110e-9

** pch Instance MI32-M_u2 = hspiceD device m11
m11 net7 net25 vdd vdd pch l=40e-9 w=410e-9 m=1 nf=1 sd=140e-9 ad=45.1e-15 as=45.1e-15 pd=1.04e-6 ps=1.04e-6 nrd=170.732e-3 nrs=170.732e-3 sa=110e-9 sb=110e-9

** pch Instance MI28 = hspiceD device mi28
mi28 net81 net83 vdd vdd pch l=40e-9 w=340e-9 m=1 nf=1 sd=140e-9 ad=37.4e-15 as=37.4e-15 pd=900e-9 ps=900e-9 nrd=205.882e-3 nrs=205.882e-3 sa=110e-9 sb=110e-9

** pch Instance MI40-M_u3 = hspiceD device m12
m12 net83 net11 vdd vdd pch l=40e-9 w=205e-9 m=1 nf=1 sd=140e-9 ad=22.55e-15 as=22.55e-15 pd=630e-9 ps=630e-9 nrd=341.463e-3 nrs=341.463e-3 sa=110e-9 sb=110e-9

** pch Instance MI31-M_u2 = hspiceD device m13