** Generated for: hspiceD
** Generated on: Mar  4 19:55:57 2019
** Design library name: CTDTDSM_NSSAR
** Design cell name: CTDTDSM_V3
** Design view name: schematic


** .TEMP 25.0
** .OPTION
** +    ARTIST=2
** +    INGOLD=2
** +    PARHIER=LOCAL
** +    PSF=2
** .LIB "/usr/local/packages/tsmc_40/pdk/models/hspice/toplevel.l" top_tt

** Library name: CTDTDSM_NSSAR
** Cell name: INVX2
** View name: schematic
** terminal mapping: I	= i
**                   VDD	= vdd
**                   VSS	= vss
**                   ZN	= zn
.subckt type:digital INVX2 i vdd vss zn

** nch_lvt_mac Instance M1 = hspiceD device xm1
xm1 zn i vss vss nch_lvt_mac l=40e-9 w=310e-9 multi=1 nf=2 sd=140e-9 ad=21.7e-15 as=34.1e-15 pd=590e-9 ps=1.06e-6 nrd=129.71e-3 nrs=129.71e-3 sa=163.182e-9 sb=163.182e-9 sa1=136.944e-9 sa2=161.471e-9 sa3=229.143e-9 sa4=159.724e-9 sb1=136.944e-9 sb2=161.471e-9 sb3=229.143e-9 spa=140e-9 spa1=140e-9 spa2=140e-9 spa3=140e-9 sap=147.401e-9 spba=180.71e-9 sapb=242.494e-9 spba1=182.707e-9 mismatchflag=1 globalflag=0 totalflag=0

** pch_lvt_mac Instance M0 = hspiceD device xm0
xm0 zn i vdd vdd pch_lvt_mac l=40e-9 w=410e-9 multi=1 nf=2 sd=140e-9 ad=28.7e-15 as=45.1e-15 pd=690e-9 ps=1.26e-6 nrd=228.243e-3 nrs=228.243e-3 sa=163.182e-9 sb=163.182e-9 sa1=136.944e-9 sa2=161.471e-9 sa3=229.143e-9 sa4=159.724e-9 sb1=136.944e-9 sb2=161.471e-9 sb3=229.143e-9 spa=140e-9 spa1=140e-9 spa2=140e-9 spa3=140e-9 sap=147.401e-9 spba=180.71e-9 sapb=242.494e-9 spba1=182.707e-9 mismatchflag=1 globalflag=0 totalflag=0
.ends INVX2
** End of subcircuit definition.

** Library name: CTDTDSM_NSSAR
** Cell name: INVX4
** View name: schematic
** terminal mapping: I	= i
**                   VDD	= vdd
**                   VSS	= vss
**                   ZN	= zn
.subckt type:digital INVX4 i vdd vss zn

** nch_lvt_mac Instance M1 = hspiceD device xm1
xm1 zn i vss vss nch_lvt_mac l=40e-9 w=620e-9 multi=1 nf=4 sd=140e-9 ad=43.4e-15 as=55.8e-15 pd=1.18e-6 ps=1.65e-6 nrd=66.169e-3 nrs=66.169e-3 sa=256.788e-9 sb=256.788e-9 sa1=172.516e-9 sa2=246.369e-9 sa3=404.983e-9 sa4=247.435e-9 sb1=172.516e-9 sb2=246.369e-9 sb3=404.983e-9 spa=140e-9 spa1=140e-9 spa2=140e-9 spa3=140e-9 sap=170.416e-9 spba=168.903e-9 sapb=240.571e-9 spba1=170.77e-9 mismatchflag=0 globalflag=0 totalflag=0

** pch_lvt_mac Instance M0 = hspiceD device xm0
xm0 zn i vdd vdd pch_lvt_mac l=40e-9 w=820e-9 multi=1 nf=4 sd=140e-9 ad=57.4e-15 as=73.8e-15 pd=1.38e-6 ps=1.95e-6 nrd=111.465e-3 nrs=111.465e-3 sa=256.788e-9 sb=256.788e-9 sa1=172.516e-9 sa2=246.369e-9 sa3=404.983e-9 sa4=247.435e-9 sb1=172.516e-9 sb2=246.369e-9 sb3=404.983e-9 spa=140e-9 spa1=140e-9 spa2=140e-9 spa3=140e-9 sap=170.416e-9 spba=168.903e-9 sapb=240.571e-9 spba1=170.77e-9 mismatchflag=0 globalflag=0 totalflag=0
.ends INVX4
** End of subcircuit definition.

** Library name: CTDTDSM_NSSAR
** Cell name: DFF_TSPC_V2
** View name: schematic
** terminal mapping: CLK	= clk
**                   D	= d
**                   DVDD	= dvdd
**                   DVSS	= dvss
**                   Q	= q
.subckt type:digital DFF_TSPC_V2 clk d dvdd dvss q

** nch_lvt_mac Instance M20 = hspiceD device xm20
xm20 net018 net09 dvss dvss nch_lvt_mac l=40e-9 w=310e-9 multi=1 nf=2 sd=140e-9 ad=21.7e-15 as=34.1e-15 pd=590e-9 ps=1.06e-6 nrd=129.71e-3 nrs=129.71e-3 sa=163.182e-9 sb=163.182e-9 sa1=136.944e-9 sa2=161.471e-9 sa3=229.143e-9 sa4=159.724e-9 sb1=136.944e-9 sb2=161.471e-9 sb3=229.143e-9 spa=140e-9 spa1=140e-9 spa2=140e-9 spa3=140e-9 sap=147.401e-9 spba=180.71e-9 sapb=242.494e-9 spba1=182.707e-9 mismatchflag=0 globalflag=0 totalflag=1

** nch_lvt_mac Instance M19 = hspiceD device xm19
xm19 net012 clk net018 dvss nch_lvt_mac l=40e-9 w=310e-9 multi=1 nf=2 sd=140e-9 ad=21.7e-15 as=34.1e-15 pd=590e-9 ps=1.06e-6 nrd=129.71e-3 nrs=129.71e-3 sa=163.182e-9 sb=163.182e-9 sa1=136.944e-9 sa2=161.471e-9 sa3=229.143e-9 sa4=159.724e-9 sb1=136.944e-9 sb2=161.471e-9 sb3=229.143e-9 spa=140e-9 spa1=140e-9 spa2=140e-9 spa3=140e-9 sap=147.401e-9 spba=180.71e-9 sapb=242.494e-9 spba1=182.707e-9 mismatchflag=0 globalflag=0 totalflag=1

** nch_lvt_mac Instance M16 = hspiceD device xm16
xm16 q net012 dvss dvss nch_lvt_mac l=40e-9 w=155e-9 multi=1 nf=1 sd=140e-9 ad=17.05e-15 as=17.05e-15 pd=530e-9 ps=530e-9 nrd=249.512e-3 nrs=249.512e-3 sa=110e-9 sb=110e-9 sa1=110e-9 sa2=110e-9 sa3=110e-9 sa4=110e-9 sb1=110e-9 sb2=110e-9 sb3=110e-9 spa=140e-9 spa1=140e-9 spa2=140e-9 spa3=140e-9 sap=130.305e-9 spba=745.547e-9 sapb=1.59028e-6 spba1=745.933e-9 mismatchflag=0 globalflag=0 totalflag=1

** nch_lvt_mac Instance M0 = hspiceD device xm0
xm0 net13 d dvss dvss nch_lvt_mac l=40e-9 w=155e-9 multi=1 nf=1 sd=140e-9 ad=17.05e-15 as=17.05e-15 pd=530e-9 ps=530e-9 nrd=249.512e-3 nrs=249.512e-3 sa=110e-9 sb=110e-9 sa1=110e-9 sa2=110e-9 sa3=110e-9 sa4=110e-9 sb1=110e-9 sb2=110e-9 sb3=110e-9 spa=140e-9 spa1=140e-9 spa2=140e-9 spa3=140e-9 sap=130.305e-9 spba=745.547e-9 sapb=1.59028e-6 spba1=745.933e-9 mismatchflag=0 globalflag=0 totalflag=1

** nch_lvt_mac Instance M1 = hspiceD device xm1
xm1 net019 clk dvss dvss nch_lvt_mac l=40e-9 w=310e-9 multi=1 nf=2 sd=140e-9 ad=21.7e-15 as=34.1e-15 pd=590e-9 ps=1.06e-6 nrd=129.71e-3 nrs=129.71e-3 sa=163.182e-9 sb=163.182e-9 sa1=136.944e-9 sa2=161.471e-9 sa3=229.143e-9 sa4=159.724e-9 sb1=136.944e-9 sb2=161.471e-9 sb3=229.143e-9 spa=140e-9 spa1=140e-9 spa2=140e-9 spa3=140e-9 sap=147.401e-9 spba=180.71e-9 sapb=242.494e-9 spba1=182.707e-9 mismatchflag=0 globalflag=0 totalflag=1

** nch_lvt_mac Instance M10 = hspiceD device xm10
xm10 net09 net13 net019 dvss nch_lvt_mac l=40e-9 w=310e-9 multi=1 nf=2 sd=140e-9 ad=21.7e-15 as=34.1e-15 pd=590e-9 ps=1.06e-6 nrd=129.71e-3 nrs=129.71e-3 sa=163.182e-9 sb=163.182e-9 sa1=136.944e-9 sa2=161.471e-9 sa3=229.143e-9 sa4=159.724e-9 sb1=136.944e-9 sb2=161.471e-9 sb3=229.143e-9 spa=140e-9 spa1=140e-9 spa2=140e-9 spa3=140e-9 sap=147.401e-9 spba=180.71e-9 sapb=242.494e-9 spba1=182.707e-9 mismatchflag=0 globalflag=0 totalflag=1

** pch_lvt_mac Instance M17 = hspiceD device xm17
xm17 q net012 dvdd dvdd pch_lvt_mac l=40e-9 w=310e-9 multi=1 nf=2 sd=140e-9 ad=21.7e-15 as=34.1e-15 pd=590e-9 ps=1.06e-6 nrd=172.574e-3 nrs=172.574e-3 sa=163.182e-9 sb=163.182e-9 sa1=136.944e-9 sa2=161.471e-9 sa3=229.143e-9 sa4=159.724e-9 sb1=136.944e-9 sb2=161.471e-9 sb3=229.143e-9 spa=140e-9 spa1=140e-9 spa2=140e-9 spa3=140e-9 sap=147.401e-9 spba=180.71e-9 sapb=242.494e-9 spba1=182.707e-9 mismatchflag=0 globalflag=0 totalflag=1

** pch_lvt_mac Instance M18 = hspiceD device xm18
xm18 net012 net09 dvdd dvdd pch_lvt_mac l=40e-9 w=310e-9 multi=1 nf=2 sd=140e-9 ad=21.7e-15 as=34.1e-15 pd=590e-9 ps=1.06e-6 nrd=172.574e-3 nrs=172.574e-3 sa=163.182e-9 sb=163.182e-9 sa1=136.944e-9 sa2=161.471e-9 sa3=229.143e-9 sa4=159.724e-9 sb1=136.944e-9 sb2=161.471e-9 sb3=229.143e-9 spa=140e-9 spa1=140e-9 spa2=140e-9 spa3=140e-9 sap=147.401e-9 spba=180.71e-9 sapb=242.494e-9 spba1=182.707e-9 mismatchflag=0 globalflag=0 totalflag=1

** pch_lvt_mac Instance M4 = hspiceD device xm4
xm4 net09 clk dvdd dvdd pch_lvt_mac l=40e-9 w=310e-9 multi=1 nf=2 sd=140e-9 ad=21.7e-15 as=34.1e-15 pd=590e-9 ps=1.06e-6 nrd=172.574e-3 nrs=172.574e-3 sa=163.182e-9 sb=163.182e-9 sa1=136.944e-9 sa2=161.471e-9 sa3=229.143e-9 sa4=159.724e-9 sb1=136.944e-9 sb2=161.471e-9 sb3=229.143e-9 spa=140e-9 spa1=140e-9 spa2=140e-9 spa3=140e-9 sap=147.401e-9 spba=180.71e-9 sapb=242.494e-9 spba1=182.707e-9 mismatchflag=0 globalflag=0 totalflag=1

** pch_lvt_mac Instance M5 = hspiceD device xm5
xm5 net7 d dvdd dvdd pch_lvt_mac l=40e-9 w=310e-9 multi=1 nf=2 sd=140e-9 ad=21.7e-15 as=34.1e-15 pd=590e-9 ps=1.06e-6 nrd=172.574e-3 nrs=172.574e-3 sa=163.182e-9 sb=163.182e-9 sa1=136.944e-9 sa2=161.471e-9 sa3=229.143e-9 sa4=159.724e-9 sb1=136.944e-9 sb2=161.471e-9 sb3=229.143e-9 spa=140e-9 spa1=140e-9 spa2=140e-9 spa3=140e-9 sap=147.401e-9 spba=180.71e-9 sapb=242.494e-9 spba1=182.707e-9 mismatchflag=0 globalflag=0 totalflag=1

** pch_lvt_mac Instance M9 = hspiceD device xm9
xm9 net13 clk net7 dvdd pch_lvt_mac l=40e-9 w=310e-9 multi=1 nf=2 sd=140e-9 ad=21.7e-15 as=34.1e-15 pd=590e-9 ps=1.06e-6 nrd=172.574e-3 nrs=172.574e-3 sa=163.182e-9 sb=163.182e-9 sa1=136.944e-9 sa2=161.471e-9 sa3=229.143e-9 sa4=159.724e-9 sb1=136.944e-9 sb2=161.471e-9 sb3=229.143e-9 spa=140e-9 spa1=140e-9 spa2=140e-9 spa3=140e-9 sap=147.401e-9 spba=180.71e-9 sapb=242.494e-9 spba1=182.707e-9 mismatchflag=0 globalflag=0 totalflag=1
.ends DFF_TSPC_V2
** End of subcircuit definition.

** Library name: CTDTDSM_NSSAR
** Cell name: BUF22444
** View name: schematic
** terminal mapping: DVDD	= dvdd
**                   DVSS	= dvss
**                   IN	= in
**                   OUT	= out
**                   OUTB	= outb
**                   OUTBB	= outbb
.subckt type:digital BUF22444 dvdd dvss in out outb outbb

** INVX2 Instance I0 = hspiceD device xi0
** Instance of Lib: CTDTDSM_NSSAR,  Cell: INVX2, View: schematic
xi0 net21 dvdd dvss net07 INVX2

** INVX2 Instance I184 = hspiceD device xi184
** Instance of Lib: CTDTDSM_NSSAR,  Cell: INVX2, View: schematic
xi184 in dvdd dvss net21 INVX2

** INVX4 Instance I187 = hspiceD device xi187
** Instance of Lib: CTDTDSM_NSSAR,  Cell: INVX4, View: schematic
xi187 outb dvdd dvss out INVX4

** INVX4 Instance I185 = hspiceD device xi185
** Instance of Lib: CTDTDSM_NSSAR,  Cell: INVX4, View: schematic
xi185 net07 dvdd dvss outb INVX4

** INVX4 Instance I186 = hspiceD device xi186
** Instance of Lib: CTDTDSM_NSSAR,  Cell: INVX4, View: schematic
xi186 out dvdd dvss outbb INVX4
.ends BUF22444
** End of subcircuit definition.

** Library name: CTDTDSM_NSSAR
** Cell name: LOGIC_DOUT_V2
** View name: schematic
** terminal mapping: CLK	= clk
**                   D<3>	= d<3>
**                   D<2>	= d<2>
**                   D<1>	= d<1>
**                   D<0>	= d<0>
**                   DOE<3>	= doe<3>
**                   DOE<2>	= doe<2>
**                   DOE<1>	= doe<1>
**                   DOE<0>	= doe<0>
**                   DOEB<3>	= doeb<3>
**                   DOEB<2>	= doeb<2>
**                   DOEB<1>	= doeb<1>
**                   DOEB<0>	= doeb<0>
**                   DOUT<3>	= dout<3>
**                   DOUT<2>	= dout<2>
**                   DOUT<1>	= dout<1>
**                   DOUT<0>	= dout<0>
**                   VDD	= vdd
**                   VSS	= vss
.subckt type:digital LOGIC_DOUT_V2 clk d<3> d<2> d<1> d<0> doe<3> doe<2> doe<1> doe<0> doeb<3> doeb<2> doeb<1> doeb<0> dout<3> dout<2> dout<1> dout<0> vdd vss

** INVX4 Instance I3 = hspiceD device xi3
** Instance of Lib: CTDTDSM_NSSAR,  Cell: INVX4, View: schematic
xi3 net10 vdd vss clkd INVX4

** INVX2 Instance I2 = hspiceD device xi2
** Instance of Lib: CTDTDSM_NSSAR,  Cell: INVX2, View: schematic
xi2 clk vdd vss net10 INVX2

** DFF_TSPC_V2 Instance I1<3:0> = hspiceD device xi1<3>
** Instance of Lib: CTDTDSM_NSSAR,  Cell: DFF_TSPC_V2, View: schematic
xi1<3> clkd d<3> vdd vss dop<3> DFF_TSPC_V2

** DFF_TSPC_V2 Instance I1<3:0> = hspiceD device xi1<2>
** Instance of Lib: CTDTDSM_NSSAR,  Cell: DFF_TSPC_V2, View: schematic
xi1<2> clkd d<2> vdd vss dop<2> DFF_TSPC_V2

** DFF_TSPC_V2 Instance I1<3:0> = hspiceD device xi1<1>
** Instance of Lib: CTDTDSM_NSSAR,  Cell: DFF_TSPC_V2, View: schematic
xi1<1> clkd d<1> vdd vss dop<1> DFF_TSPC_V2

** DFF_TSPC_V2 Instance I1<3:0> = hspiceD device xi1<0>
** Instance of Lib: CTDTDSM_NSSAR,  Cell: DFF_TSPC_V2, View: schematic
xi1<0> clkd d<0> vdd vss dop<0> DFF_TSPC_V2

** BUF22444 Instance I18 = hspiceD device xi18
** Instance of Lib: CTDTDSM_NSSAR,  Cell: BUF22444, View: schematic
xi18 vdd vss dop<3> doe<3> doeb<3> dout<3> BUF22444

** BUF22444 Instance I36 = hspiceD device xi36
** Instance of Lib: CTDTDSM_NSSAR,  Cell: BUF22444, View: schematic
xi36 vdd vss dop<0> doe<0> doeb<0> dout<0> BUF22444

** BUF22444 Instance I35 = hspiceD device xi35
** Instance of Lib: CTDTDSM_NSSAR,  Cell: BUF22444, View: schematic
xi35 vdd vss dop<1> doe<1> doeb<1> dout<1> BUF22444

** BUF22444 Instance I34 = hspiceD device xi34
** Instance of Lib: CTDTDSM_NSSAR,  Cell: BUF22444, View: schematic
xi34 vdd vss dop<2> doe<2> doeb<2> dout<2> BUF22444
.ends LOGIC_DOUT_V2
** End of subcircuit definition.

** Library name: CTDTDSM_NSSAR
** Cell name: BSSW_WOTOD
** View name: schematic
** terminal mapping: AVDD	= avdd
**                   AVSS	= avss
**                   PHI	= phi
**                   VG	= vg
**                   VIN	= vin
**                   VOUT	= vout
.subckt type:analog BSSW_WOTOD avdd avss phi vg vin vout

** nch_lvt_mac Instance M13 = hspiceD device xm13
xm13 phie phieb avss avss nch_lvt_mac l=40e-9 w=480e-9 multi=1 nf=2 sd=140e-9 ad=33.6e-15 as=52.8e-15 pd=760e-9 ps=1.4e-6 nrd=200.841e-3 nrs=200.841e-3 sa=163.182e-9 sb=163.182e-9 sa1=136.944e-9 sa2=161.471e-9 sa3=229.143e-9 sa4=159.724e-9 sb1=136.944e-9 sb2=161.471e-9 sb3=229.143e-9 spa=140e-9 spa1=140e-9 spa2=140e-9 spa3=140e-9 sap=147.401e-9 spba=180.71e-9 sapb=242.494e-9 spba1=182.707e-9

** nch_lvt_mac Instance M10 = hspiceD device xm10
xm10 phieb net013 avss avss nch_lvt_mac l=40e-9 w=480e-9 multi=1 nf=2 sd=140e-9 ad=33.6e-15 as=52.8e-15 pd=760e-9 ps=1.4e-6 nrd=200.841e-3 nrs=200.841e-3 sa=163.182e-9 sb=163.182e-9 sa1=136.944e-9 sa2=161.471e-9 sa3=229.143e-9 sa4=159.724e-9 sb1=136.944e-9 sb2=161.471e-9 sb3=229.143e-9 spa=140e-9 spa1=140e-9 spa2=140e-9 spa3=140e-9 sap=147.401e-9 spba=180.71e-9 sapb=242.494e-9 spba1=182.707e-9

** nch_lvt_mac Instance M9 = hspiceD device xm9
xm9 net013 phi avss avss nch_lvt_mac l=40e-9 w=480e-9 multi=1 nf=2 sd=140e-9 ad=33.6e-15 as=52.8e-15 pd=760e-9 ps=1.4e-6 nrd=200.841e-3 nrs=200.841e-3 sa=163.182e-9 sb=163.182e-9 sa1=136.944e-9 sa2=161.471e-9 sa3=229.143e-9 sa4=159.724e-9 sb1=136.944e-9 sb2=161.471e-9 sb3=229.143e-9 spa=140e-9 spa1=140e-9 spa2=140e-9 spa3=140e-9 sap=147.401e-9 spba=180.71e-9 sapb=242.494e-9 spba1=182.707e-9

** nch_lvt_mac Instance M5 = hspiceD device xm5
xm5 net13 phieb net06 avss nch_lvt_mac l=40e-9 w=480e-9 multi=1 nf=1 sd=140e-9 ad=52.8e-15 as=52.8e-15 pd=1.18e-6 ps=1.18e-6 nrd=85.854e-3 nrs=85.854e-3 sa=110e-9 sb=110e-9 sa1=110e-9 sa2=110e-9 sa3=110e-9 sa4=110e-9 sb1=110e-9 sb2=110e-9 sb3=110e-9 spa=140e-9 spa1=140e-9 spa2=140e-9 spa3=140e-9 sap=130.305e-9 spba=745.547e-9 sapb=1.59028e-6 spba1=745.933e-9

** nch_lvt_mac Instance M2 = hspiceD device xm2
xm2 net13 vg net06 avss nch_lvt_mac l=40e-9 w=480e-9 multi=1 nf=1 sd=140e-9 ad=52.8e-15 as=52.8e-15 pd=1.18e-6 ps=1.18e-6 nrd=85.854e-3 nrs=85.854e-3 sa=110e-9 sb=110e-9 sa1=110e-9 sa2=110e-9 sa3=110e-9 sa4=110e-9 sb1=110e-9 sb2=110e-9 sb3=110e-9 spa=140e-9 spa1=140e-9 spa2=140e-9 spa3=140e-9 sap=130.305e-9 spba=745.547e-9 sapb=1.59028e-6 spba1=745.933e-9

** nch_lvt_mac Instance M3 = hspiceD device xm3
xm3 net016 avdd vg avss nch_lvt_mac l=40e-9 w=960e-9 multi=1 nf=2 sd=140e-9 ad=67.2e-15 as=105.6e-15 pd=1.24e-6 ps=2.36e-6 nrd=44.631e-3 nrs=44.631e-3 sa=163.182e-9 sb=163.182e-9 sa1=136.944e-9 sa2=161.471e-9 sa3=229.143e-9 sa4=159.724e-9 sb1=136.944e-9 sb2=161.471e-9 sb3=229.143e-9 spa=140e-9 spa1=140e-9 spa2=140e-9 spa3=140e-9 sap=147.401e-9 spba=180.71e-9 sapb=242.494e-9 spba1=182.707e-9

** nch_lvt_mac Instance M28 = hspiceD device xm28
xm28 avss phie net016 avss nch_lvt_mac l=40e-9 w=480e-9 multi=1 nf=1 sd=140e-9 ad=52.8e-15 as=52.8e-15 pd=1.18e-6 ps=1.18e-6 nrd=85.854e-3 nrs=85.854e-3 sa=110e-9 sb=110e-9 sa1=110e-9 sa2=110e-9 sa3=110e-9 sa4=110e-9 sb1=110e-9 sb2=110e-9 sb3=110e-9 spa=140e-9 spa1=140e-9 spa2=140e-9 spa3=140e-9 sap=130.305e-9 spba=745.547e-9 sapb=1.59028e-6 spba1=745.933e-9

** nch_lvt_mac Instance M24 = hspiceD device xm24
xm24 net13 phie avss avss nch_lvt_mac l=40e-9 w=480e-9 multi=1 nf=1 sd=140e-9 ad=52.8e-15 as=52.8e-15 pd=1.18e-6 ps=1.18e-6 nrd=85.854e-3 nrs=85.854e-3 sa=110e-9 sb=110e-9 sa1=110e-9 sa2=110e-9 sa3=110e-9 sa4=110e-9 sb1=110e-9 sb2=110e-9 sb3=110e-9 spa=140e-9 spa1=140e-9 spa2=140e-9 spa3=140e-9 sap=130.305e-9 spba=745.547e-9 sapb=1.59028e-6 spba1=745.933e-9

** nch_lvt_mac Instance M25 = hspiceD device xm25
xm25 vout vg vin avss nch_lvt_mac l=40e-9 w=1.92e-6 multi=1 nf=4 sd=140e-9 ad=134.4e-15 as=172.8e-15 pd=2.48e-6 ps=3.6e-6 nrd=22.768e-3 nrs=22.768e-3 sa=256.788e-9 sb=256.788e-9 sa1=172.516e-9 sa2=246.369e-9 sa3=404.983e-9 sa4=247.435e-9 sb1=172.516e-9 sb2=246.369e-9 sb3=404.983e-9 spa=140e-9 spa1=140e-9 spa2=140e-9 spa3=140e-9 sap=170.416e-9 spba=168.903e-9 sapb=240.571e-9 spba1=170.77e-9

** nch_lvt_mac Instance M26 = hspiceD device xm26
xm26 vin vg net13 avss nch_lvt_mac l=40e-9 w=480e-9 multi=1 nf=1 sd=140e-9 ad=52.8e-15 as=52.8e-15 pd=1.18e-6 ps=1.18e-6 nrd=85.854e-3 nrs=85.854e-3 sa=110e-9 sb=110e-9 sa1=110e-9 sa2=110e-9 sa3=110e-9 sa4=110e-9 sb1=110e-9 sb2=110e-9 sb3=110e-9 spa=140e-9 spa1=140e-9 spa2=140e-9 spa3=140e-9 sap=130.305e-9 spba=745.547e-9 sapb=1.59028e-6 spba1=745.933e-9

** pch_lvt_mac Instance M12 = hspiceD device xm12
xm12 phie phieb avdd avdd pch_lvt_mac l=40e-9 w=960e-9 multi=1 nf=2 sd=140e-9 ad=67.2e-15 as=105.6e-15 pd=1.24e-6 ps=2.36e-6 nrd=59.38e-3 nrs=59.38e-3 sa=163.182e-9 sb=163.182e-9 sa1=136.944e-9 sa2=161.471e-9 sa3=229.143e-9 sa4=159.724e-9 sb1=136.944e-9 sb2=161.471e-9 sb3=229.143e-9 spa=140e-9 spa1=140e-9 spa2=140e-9 spa3=140e-9 sap=147.401e-9 spba=180.71e-9 sapb=242.494e-9 spba1=182.707e-9

** pch_lvt_mac Instance M11 = hspiceD device xm11
xm11 phieb net013 avdd avdd pch_lvt_mac l=40e-9 w=960e-9 multi=1 nf=2 sd=140e-9 ad=67.2e-15 as=105.6e-15 pd=1.24e-6 ps=2.36e-6 nrd=59.38e-3 nrs=59.38e-3 sa=163.182e-9 sb=163.182e-9 sa1=136.944e-9 sa2=161.471e-9 sa3=229.143e-9 sa4=159.724e-9 sb1=136.944e-9 sb2=161.471e-9 sb3=229.143e-9 spa=140e-9 spa1=140e-9 spa2=140e-9 spa3=140e-9 sap=147.401e-9 spba=180.71e-9 sapb=242.494e-9 spba1=182.707e-9

** pch_lvt_mac Instance M8 = hspiceD device xm8
xm8 net013 phi avdd avdd pch_lvt_mac l=40e-9 w=960e-9 multi=1 nf=2 sd=140e-9 ad=67.2e-15 as=105.6e-15 pd=1.24e-6 ps=2.36e-6 nrd=59.38e-3 nrs=59.38e-3 sa=163.182e-9 sb=163.182e-9 sa1=136.944e-9 sa2=161.471e-9 sa3=229.143e-9 sa4=159.724e-9 sb1=136.944e-9 sb2=161.471e-9 sb3=229.143e-9 spa=140e-9 spa1=140e-9 spa2=140e-9 spa3=140e-9 sap=147.401e-9 spba=180.71e-9 sapb=242.494e-9 spba1=182.707e-9

** pch_lvt_mac Instance M1 = hspiceD device xm1
xm1 vg net06 net8 net8 pch_lvt_mac l=40e-9 w=480e-9 multi=1 nf=1 sd=140e-9 ad=52.8e-15 as=52.8e-15 pd=1.18e-6 ps=1.18e-6 nrd=124.706e-3 nrs=124.706e-3 sa=110e-9 sb=110e-9 sa1=110e-9 sa2=110e-9 sa3=110e-9 sa4=110e-9 sb1=110e-9 sb2=110e-9 sb3=110e-9 spa=140e-9 spa1=140e-9 spa2=140e-9 spa3=140e-9 sap=130.305e-9 spba=745.547e-9 sapb=1.59028e-6 spba1=745.933e-9

** pch_lvt_mac Instance M4 = hspiceD device xm4
xm4 net06 phieb avdd avdd pch_lvt_mac l=40e-9 w=480e-9 multi=1 nf=1 sd=140e-9 ad=52.8e-15 as=52.8e-15 pd=1.18e-6 ps=1.18e-6 nrd=124.706e-3 nrs=124.706e-3 sa=110e-9 sb=110e-9 sa1=110e-9 sa2=110e-9 sa3=110e-9 sa4=110e-9 sb1=110e-9 sb2=110e-9 sb3=110e-9 spa=140e-9 spa1=140e-9 spa2=140e-9 spa3=140e-9 sap=130.305e-9 spba=745.547e-9 sapb=1.59028e-6 spba1=745.933e-9

** pch_lvt_mac Instance M0 = hspiceD device xm0
xm0 net8 vg avdd net8 pch_lvt_mac l=40e-9 w=480e-9 multi=1 nf=1 sd=140e-9 ad=52.8e-15 as=52.8e-15 pd=1.18e-6 ps=1.18e-6 nrd=124.706e-3 nrs=124.706e-3 sa=110e-9 sb=110e-9 sa1=110e-9 sa2=110e-9 sa3=110e-9 sa4=110e-9 sb1=110e-9 sb2=110e-9 sb3=110e-9 spa=140e-9 spa1=140e-9 spa2=140e-9 spa3=140e-9 sap=130.305e-9 spba=745.547e-9 sapb=1.59028e-6 spba1=745.933e-9

** cfmom Instance C0 = hspiceD device xc0
xc0 net8 net13 avdd cfmom nr=16 lr=4e-6 w=100e-9 s=100e-9 stm=2 spm=6 multi=1 ftip=140e-9 dmflag=0
.ends BSSW_WOTOD
** End of subcircuit definition.

** Library name: CTDTDSM_NSSAR
** Cell name: BSSW_WOTOD_NS
** View name: schematic
** terminal mapping: AVDD	= avdd
**                   AVSS	= avss
**                   PHI	= phi
**                   VCM	= vcm
**                   VG	= vg
.subckt type:analog BSSW_WOTOD_NS avdd avss phi vcm vg

** nch_lvt_mac Instance M12 = hspiceD device xm12
xm12 phieb phie avss avss nch_lvt_mac l=40e-9 w=240e-9 multi=1 nf=1 sd=140e-9 ad=26.4e-15 as=26.4e-15 pd=700e-9 ps=700e-9 nrd=386.341e-3 nrs=386.341e-3 sa=110e-9 sb=110e-9 sa1=110e-9 sa2=110e-9 sa3=110e-9 sa4=110e-9 sb1=110e-9 sb2=110e-9 sb3=110e-9 spa=140e-9 spa1=140e-9 spa2=140e-9 spa3=140e-9 sap=130.305e-9 spba=745.547e-9 sapb=1.59028e-6 spba1=745.933e-9

** nch_lvt_mac Instance M5 = hspiceD device xm5
xm5 net019 phieb net018 avss nch_lvt_mac l=40e-9 w=480e-9 multi=1 nf=1 sd=140e-9 ad=52.8e-15 as=52.8e-15 pd=1.18e-6 ps=1.18e-6 nrd=85.854e-3 nrs=85.854e-3 sa=110e-9 sb=110e-9 sa1=110e-9 sa2=110e-9 sa3=110e-9 sa4=110e-9 sb1=110e-9 sb2=110e-9 sb3=110e-9 spa=140e-9 spa1=140e-9 spa2=140e-9 spa3=140e-9 sap=130.305e-9 spba=745.547e-9 sapb=1.59028e-6 spba1=745.933e-9

** nch_lvt_mac Instance M3 = hspiceD device xm3
xm3 net016 avdd vg avss nch_lvt_mac l=40e-9 w=480e-9 multi=1 nf=1 sd=140e-9 ad=52.8e-15 as=52.8e-15 pd=1.18e-6 ps=1.18e-6 nrd=85.854e-3 nrs=85.854e-3 sa=110e-9 sb=110e-9 sa1=110e-9 sa2=110e-9 sa3=110e-9 sa4=110e-9 sb1=110e-9 sb2=110e-9 sb3=110e-9 spa=140e-9 spa1=140e-9 spa2=140e-9 spa3=140e-9 sap=130.305e-9 spba=745.547e-9 sapb=1.59028e-6 spba1=745.933e-9

** nch_lvt_mac Instance M10 = hspiceD device xm10
xm10 phie phi avss avss nch_lvt_mac l=40e-9 w=240e-9 multi=1 nf=1 sd=140e-9 ad=26.4e-15 as=26.4e-15 pd=700e-9 ps=700e-9 nrd=386.341e-3 nrs=386.341e-3 sa=110e-9 sb=110e-9 sa1=110e-9 sa2=110e-9 sa3=110e-9 sa4=110e-9 sb1=110e-9 sb2=110e-9 sb3=110e-9 spa=140e-9 spa1=140e-9 spa2=140e-9 spa3=140e-9 sap=130.305e-9 spba=745.547e-9 sapb=1.59028e-6 spba1=745.933e-9

** nch_lvt_mac Instance M28 = hspiceD device xm28
xm28 avss phie net016 avss nch_lvt_mac l=40e-9 w=480e-9 multi=1 nf=1 sd=140e-9 ad=52.8e-15 as=52.8e-15 pd=1.18e-6 ps=1.18e-6 nrd=85.854e-3 nrs=85.854e-3 sa=110e-9 sb=110e-9 sa1=110e-9 sa2=110e-9 sa3=110e-9 sa4=110e-9 sb1=110e-9 sb2=110e-9 sb3=110e-9 spa=140e-9 spa1=140e-9 spa2=140e-9 spa3=140e-9 sap=130.305e-9 spba=745.547e-9 sapb=1.59028e-6 spba1=745.933e-9

** nch_lvt_mac Instance M24 = hspiceD device xm24
xm24 net019 phie avss avss nch_lvt_mac l=40e-9 w=480e-9 multi=1 nf=1 sd=140e-9 ad=52.8e-15 as=52.8e-15 pd=1.18e-6 ps=1.18e-6 nrd=85.854e-3 nrs=85.854e-3 sa=110e-9 sb=110e-9 sa1=110e-9 sa2=110e-9 sa3=110e-9 sa4=110e-9 sb1=110e-9 sb2=110e-9 sb3=110e-9 spa=140e-9 spa1=140e-9 spa2=140e-9 spa3=140e-9 sap=130.305e-9 spba=745.547e-9 sapb=1.59028e-6 spba1=745.933e-9

** nch_lvt_mac Instance M7 = hspiceD device xm7
xm7 vcm phieb net019 avss nch_lvt_mac l=40e-9 w=480e-9 multi=1 nf=1 sd=140e-9 ad=52.8e-15 as=52.8e-15 pd=1.18e-6 ps=1.18e-6 nrd=85.854e-3 nrs=85.854e-3 sa=110e-9 sb=110e-9 sa1=110e-9 sa2=110e-9 sa3=110e-9 sa4=110e-9 sb1=110e-9 sb2=110e-9 sb3=110e-9 spa=140e-9 spa1=140e-9 spa2=140e-9 spa3=140e-9 sap=130.305e-9 spba=745.547e-9 sapb=1.59028e-6 spba1=745.933e-9

** nch_lvt_mac Instance M26 = hspiceD device xm26
xm26 vcm vg net019 avss nch_lvt_mac l=40e-9 w=480e-9 multi=1 nf=2 sd=140e-9 ad=33.6e-15 as=52.8e-15 pd=760e-9 ps=1.4e-6 nrd=200.841e-3 nrs=200.841e-3 sa=163.182e-9 sb=163.182e-9 sa1=136.944e-9 sa2=161.471e-9 sa3=229.143e-9 sa4=159.724e-9 sb1=136.944e-9 sb2=161.471e-9 sb3=229.143e-9 spa=140e-9 spa1=140e-9 spa2=140e-9 spa3=140e-9 sap=147.401e-9 spba=180.71e-9 sapb=242.494e-9 spba1=182.707e-9

** pch_lvt_mac Instance M11 = hspiceD device xm11
xm11 phieb phie avdd avdd pch_lvt_mac l=40e-9 w=480e-9 multi=1 nf=1 sd=140e-9 ad=52.8e-15 as=52.8e-15 pd=1.18e-6 ps=1.18e-6 nrd=124.706e-3 nrs=124.706e-3 sa=110e-9 sb=110e-9 sa1=110e-9 sa2=110e-9 sa3=110e-9 sa4=110e-9 sb1=110e-9 sb2=110e-9 sb3=110e-9 spa=140e-9 spa1=140e-9 spa2=140e-9 spa3=140e-9 sap=130.305e-9 spba=745.547e-9 sapb=1.59028e-6 spba1=745.933e-9

** pch_lvt_mac Instance M9 = hspiceD device xm9
xm9 phie phi avdd avdd pch_lvt_mac l=40e-9 w=480e-9 multi=1 nf=1 sd=140e-9 ad=52.8e-15 as=52.8e-15 pd=1.18e-6 ps=1.18e-6 nrd=124.706e-3 nrs=124.706e-3 sa=110e-9 sb=110e-9 sa1=110e-9 sa2=110e-9 sa3=110e-9 sa4=110e-9 sb1=110e-9 sb2=110e-9 sb3=110e-9 spa=140e-9 spa1=140e-9 spa2=140e-9 spa3=140e-9 sap=130.305e-9 spba=745.547e-9 sapb=1.59028e-6 spba1=745.933e-9

** pch_lvt_mac Instance M6 = hspiceD device xm6
xm6 net018 phie net019 avdd pch_lvt_mac l=40e-9 w=480e-9 multi=1 nf=1 sd=140e-9 ad=52.8e-15 as=52.8e-15 pd=1.18e-6 ps=1.18e-6 nrd=124.706e-3 nrs=124.706e-3 sa=110e-9 sb=110e-9 sa1=110e-9 sa2=110e-9 sa3=110e-9 sa4=110e-9 sb1=110e-9 sb2=110e-9 sb3=110e-9 spa=140e-9 spa1=140e-9 spa2=140e-9 spa3=140e-9 sap=130.305e-9 spba=745.547e-9 sapb=1.59028e-6 spba1=745.933e-9

** pch_lvt_mac Instance M1 = hspiceD device xm1
xm1 vg net018 net8 net8 pch_lvt_mac l=40e-9 w=960e-9 multi=1 nf=4 sd=140e-9 ad=67.2e-15 as=86.4e-15 pd=1.52e-6 ps=2.16e-6 nrd=130.495e-3 nrs=130.495e-3 sa=256.788e-9 sb=256.788e-9 sa1=172.516e-9 sa2=246.369e-9 sa3=404.983e-9 sa4=247.435e-9 sb1=172.516e-9 sb2=246.369e-9 sb3=404.983e-9 spa=140e-9 spa1=140e-9 spa2=140e-9 spa3=140e-9 sap=170.416e-9 spba=168.903e-9 sapb=240.571e-9 spba1=170.77e-9

** pch_lvt_mac Instance M4 = hspiceD device xm4
xm4 net018 phieb avdd avdd pch_lvt_mac l=40e-9 w=480e-9 multi=1 nf=1 sd=140e-9 ad=52.8e-15 as=52.8e-15 pd=1.18e-6 ps=1.18e-6 nrd=124.706e-3 nrs=124.706e-3 sa=110e-9 sb=110e-9 sa1=110e-9 sa2=110e-9 sa3=110e-9 sa4=110e-9 sb1=110e-9 sb2=110e-9 sb3=110e-9 spa=140e-9 spa1=140e-9 spa2=140e-9 spa3=140e-9 sap=130.305e-9 spba=745.547e-9 sapb=1.59028e-6 spba1=745.933e-9

** pch_lvt_mac Instance M0 = hspiceD device xm0
xm0 net8 phieb avdd net8 pch_lvt_mac l=40e-9 w=480e-9 multi=1 nf=1 sd=140e-9 ad=52.8e-15 as=52.8e-15 pd=1.18e-6 ps=1.18e-6 nrd=124.706e-3 nrs=124.706e-3 sa=110e-9 sb=110e-9 sa1=110e-9 sa2=110e-9 sa3=110e-9 sa4=110e-9 sb1=110e-9 sb2=110e-9 sb3=110e-9 spa=140e-9 spa1=140e-9 spa2=140e-9 spa3=140e-9 sap=130.305e-9 spba=745.547e-9 sapb=1.59028e-6 spba1=745.933e-9

** cfmom Instance C0 = hspiceD device xc0
xc0 net8 net019 avdd cfmom nr=16 lr=4e-6 w=100e-9 s=100e-9 stm=2 spm=6 multi=1 ftip=140e-9 dmflag=0
.ends BSSW_WOTOD_NS
** End of subcircuit definition.

** Library name: CTDTDSM_NSSAR
** Cell name: INVX1NB
** View name: schematic
** terminal mapping: I	= i
**                   VB	= vb
**                   VDD	= vdd
**                   VSS	= vss
**                   ZN	= zn
.subckt type:digital INVX1NB i vb vdd vss zn

** nch_lvt_mac Instance M1 = hspiceD device xm1
xm1 zn i vss vb nch_lvt_mac l=40e-9 w=120e-9 multi=1 nf=1 sd=140e-9 ad=13.2e-15 as=13.2e-15 pd=460e-9 ps=460e-9 nrd=193.171e-3 nrs=193.171e-3 sa=110e-9 sb=110e-9 sa1=110e-9 sa2=110e-9 sa3=110e-9 sa4=110e-9 sb1=110e-9 sb2=110e-9 sb3=110e-9 spa=140e-9 spa1=140e-9 spa2=140e-9 spa3=140e-9 sap=130.305e-9 spba=745.547e-9 sapb=1.59028e-6 spba1=745.933e-9 mismatchflag=0 globalflag=0 totalflag=1

** pch_lvt_mac Instance M0 = hspiceD device xm0
xm0 zn i vdd vdd pch_lvt_mac l=40e-9 w=240e-9 multi=1 nf=1 sd=140e-9 ad=26.4e-15 as=26.4e-15 pd=700e-9 ps=700e-9 nrd=561.178e-3 nrs=561.178e-3 sa=110e-9 sb=110e-9 sa1=110e-9 sa2=110e-9 sa3=110e-9 sa4=110e-9 sb1=110e-9 sb2=110e-9 sb3=110e-9 spa=140e-9 spa1=140e-9 spa2=140e-9 spa3=140e-9 sap=130.305e-9 spba=745.547e-9 sapb=1.59028e-6 spba1=745.933e-9 mismatchflag=0 globalflag=0 totalflag=1
.ends INVX1NB
** End of subcircuit definition.

** Library name: CTDTDSM_NSSAR
** Cell name: INVX8NB
** View name: schematic
** terminal mapping: I	= i
**                   VB	= vb
**                   VDD	= vdd
**                   VSS	= vss
**                   ZN	= zn
.subckt type:digital INVX8NB i vb vdd vss zn

** nch_lvt Instance M1 = hspiceD device m1
m1 zn i vss vb nch_lvt l=40e-9 w=960e-9 m=1 nf=4 sd=140e-9 ad=67.2e-15 as=86.4e-15 pd=1.52e-6 ps=2.16e-6 nrd=102.455e-3 nrs=102.455e-3 sa=256.788e-9 sb=256.788e-9

** pch_lvt Instance M0 = hspiceD device m0
m0 zn i vdd vdd pch_lvt l=40e-9 w=1.92e-6 m=1 nf=4 sd=140e-9 ad=134.4e-15 as=172.8e-15 pd=2.48e-6 ps=3.6e-6 nrd=28.999e-3 nrs=28.999e-3 sa=256.788e-9 sb=256.788e-9
.ends INVX8NB
** End of subcircuit definition.

** Library name: CTDTDSM_NSSAR
** Cell name: INVX2NB
** View name: schematic
** terminal mapping: I	= i
**                   VB	= vb
**                   VDD	= vdd
**                   VSS	= vss
**                   ZN	= zn
.subckt type:digital INVX2NB i vb vdd vss zn

** nch_lvt_mac Instance M1 = hspiceD device xm1
xm1 zn i vss vb nch_lvt_mac l=40e-9 w=240e-9 multi=1 nf=1 sd=140e-9 ad=26.4e-15 as=26.4e-15 pd=700e-9 ps=700e-9 nrd=386.341e-3 nrs=386.341e-3 sa=110e-9 sb=110e-9 sa1=110e-9 sa2=110e-9 sa3=110e-9 sa4=110e-9 sb1=110e-9 sb2=110e-9 sb3=110e-9 spa=140e-9 spa1=140e-9 spa2=140e-9 spa3=140e-9 sap=130.305e-9 spba=745.547e-9 sapb=1.59028e-6 spba1=745.933e-9 mismatchflag=0 globalflag=0 totalflag=1

** pch_lvt_mac Instance M0 = hspiceD device xm0
xm0 zn i vdd vdd pch_lvt_mac l=40e-9 w=480e-9 multi=1 nf=1 sd=140e-9 ad=52.8e-15 as=52.8e-15 pd=1.18e-6 ps=1.18e-6 nrd=124.706e-3 nrs=124.706e-3 sa=110e-9 sb=110e-9 sa1=110e-9 sa2=110e-9 sa3=110e-9 sa4=110e-9 sb1=110e-9 sb2=110e-9 sb3=110e-9 spa=140e-9 spa1=140e-9 spa2=140e-9 spa3=140e-9 sap=130.305e-9 spba=745.547e-9 sapb=1.59028e-6 spba1=745.933e-9 mismatchflag=0 globalflag=0 totalflag=1
.ends INVX2NB
** End of subcircuit definition.

** Library name: CTDTDSM_NSSAR
** Cell name: INVX4NB
** View name: schematic
** terminal mapping: I	= i
**                   VB	= vb
**                   VDD	= vdd
**                   VSS	= vss
**                   ZN	= zn
.subckt type:digital INVX4NB i vb vdd vss zn

** nch_lvt_mac Instance M1 = hspiceD device xm1
xm1 zn i vss vb nch_lvt_mac l=40e-9 w=480e-9 multi=1 nf=2 sd=140e-9 ad=33.6e-15 as=52.8e-15 pd=760e-9 ps=1.4e-6 nrd=200.841e-3 nrs=200.841e-3 sa=163.182e-9 sb=163.182e-9 sa1=136.944e-9 sa2=161.471e-9 sa3=229.143e-9 sa4=159.724e-9 sb1=136.944e-9 sb2=161.471e-9 sb3=229.143e-9 spa=140e-9 spa1=140e-9 spa2=140e-9 spa3=140e-9 sap=147.401e-9 spba=180.71e-9 sapb=242.494e-9 spba1=182.707e-9 mismatchflag=0 globalflag=0 totalflag=1

** pch_lvt_mac Instance M0 = hspiceD device xm0